data_T12-O1
_audit_creation_date              2021-11-01
_audit_creation_method            'Materials Studio'
_symmetry_space_group_name_H-M    'P1'
_symmetry_Int_Tables_number       1
_symmetry_cell_setting            triclinic
loop_
_symmetry_equiv_pos_as_xyz
  x,y,z
_cell_length_a                    20.3820
_cell_length_b                    40.3304
_cell_length_c                    13.5742
_cell_angle_alpha                 90
_cell_angle_beta                  90
_cell_angle_gamma                 90
loop_
_atom_site_label
_atom_site_type_symbol
_atom_site_fract_x
_atom_site_fract_y
_atom_site_fract_z
_atom_site_U_iso_or_equiv
_atom_site_adp_type
_atom_site_occupancy
Si1    Si    0.42485   0.42114   0.14510   0.01267  Uiso   1.00
Si2    Si    0.30848   0.40672   0.29341   0.01267  Uiso   1.00
Si3    Si    0.28045   0.42374   0.51310   0.01267  Uiso   1.00
Si4    Si    0.12205   0.42469   0.51149   0.01267  Uiso   1.00
Si5    Si    0.06925   0.40781   0.29936   0.01267  Uiso   1.00
Si6    Si    0.18382   0.42176   0.15734   0.01267  Uiso   1.00
Si7    Si    0.41840   0.30596   0.16032   0.01267  Uiso   1.00
Si8    Si    0.30545   0.32716   0.30569   0.01267  Uiso   1.00
Si9    Si    0.26776   0.30683   0.52081   0.01267  Uiso   1.00
Si10   Si    0.11455   0.30617   0.50944   0.01267  Uiso   1.00
Si11   Si    0.06496   0.32858   0.29776   0.01267  Uiso   1.00
Si12   Si    0.18404   0.30677   0.17006   0.01267  Uiso   1.00
Si13   Si    0.07655   0.36370   0.64774   0.01267  Uiso   1.00
Si14   Si    0.19176   0.37864   0.79565   0.01267  Uiso   1.00
Si15   Si    0.21871   0.36200   0.01600   0.01267  Uiso   1.00
Si16   Si    0.37637   0.36065   0.01133   0.01267  Uiso   1.00
Si17   Si    0.42850   0.37731   0.79862   0.01267  Uiso   1.00
Si18   Si    0.31464   0.36406   0.65705   0.01267  Uiso   1.00
Si19   Si    0.07812   0.47903   0.66215   0.01267  Uiso   1.00
Si20   Si    0.19297   0.45801   0.80460   0.01267  Uiso   1.00
Si21   Si    0.23047   0.47875   0.02000   0.01267  Uiso   1.00
Si22   Si    0.38344   0.47896   0.00857   0.01267  Uiso   1.00
Si23   Si    0.43284   0.45656   0.79718   0.01267  Uiso   1.00
Si24   Si    0.31475   0.47816   0.66832   0.01267  Uiso   1.00
Si25   Si    0.57551   0.17137   0.83623   0.01267  Uiso   1.00
Si26   Si    0.69264   0.15598   0.69080   0.01267  Uiso   1.00
Si27   Si    0.71969   0.17301   0.46996   0.01267  Uiso   1.00
Si28   Si    0.87817   0.17518   0.46960   0.01267  Uiso   1.00
Si29   Si    0.92886   0.15731   0.68250   0.01267  Uiso   1.00
Si30   Si    0.81663   0.17024   0.82936   0.01267  Uiso   1.00
Si31   Si    0.57713   0.05623   0.81573   0.01267  Uiso   1.00
Si32   Si    0.69200   0.07673   0.67305   0.01267  Uiso   1.00
Si33   Si    0.72910   0.05677   0.45679   0.01267  Uiso   1.00
Si34   Si    0.88217   0.05628   0.46930   0.01267  Uiso   1.00
Si35   Si    0.93157   0.07806   0.68129   0.01267  Uiso   1.00
Si36   Si    0.81307   0.05600   0.80827   0.01267  Uiso   1.00
Si37   Si    0.92310   0.11413   0.33348   0.01267  Uiso   1.00
Si38   Si    0.80780   0.12777   0.18300   0.01267  Uiso   1.00
Si39   Si    0.77938   0.11021   0.96621   0.01267  Uiso   1.00
Si40   Si    0.62174   0.11027   0.96821   0.01267  Uiso   1.00
Si41   Si    0.57067   0.12721   0.17857   0.01267  Uiso   1.00
Si42   Si    0.68477   0.11461   0.32483   0.01267  Uiso   1.00
Si43   Si    0.92095   0.22878   0.31811   0.01267  Uiso   1.00
Si44   Si    0.80580   0.20597   0.17452   0.01267  Uiso   1.00
Si45   Si    0.76863   0.22891   0.96104   0.01267  Uiso   1.00
Si46   Si    0.61543   0.22939   0.97021   0.01267  Uiso   1.00
Si47   Si    0.56629   0.20585   0.17908   0.01267  Uiso   1.00
Si48   Si    0.68473   0.22529   0.31103   0.01267  Uiso   1.00
Si49   Si    0.57480   0.36387   0.83659   0.01267  Uiso   1.00
Si50   Si    0.69056   0.37990   0.68939   0.01267  Uiso   1.00
Si51   Si    0.71937   0.36159   0.47116   0.01267  Uiso   1.00
Si52   Si    0.87710   0.36096   0.46685   0.01267  Uiso   1.00
Si53   Si    0.92998   0.37785   0.67782   0.01267  Uiso   1.00
Si54   Si    0.81567   0.36474   0.82263   0.01267  Uiso   1.00
Si55   Si    0.57745   0.47941   0.81686   0.01267  Uiso   1.00
Si56   Si    0.69088   0.45856   0.67299   0.01267  Uiso   1.00
Si57   Si    0.72998   0.47861   0.45814   0.01267  Uiso   1.00
Si58   Si    0.88311   0.47969   0.46873   0.01267  Uiso   1.00
Si59   Si    0.93312   0.45689   0.67849   0.01267  Uiso   1.00
Si60   Si    0.81366   0.47774   0.80654   0.01267  Uiso   1.00
Si61   Si    0.92218   0.42208   0.33055   0.01267  Uiso   1.00
Si62   Si    0.80746   0.40690   0.18280   0.01267  Uiso   1.00
Si63   Si    0.77943   0.42315   0.96335   0.01267  Uiso   1.00
Si64   Si    0.62207   0.42471   0.96641   0.01267  Uiso   1.00
Si65   Si    0.68547   0.42032   0.32600   0.01267  Uiso   1.00
Si66   Si    0.91884   0.30666   0.31326   0.01267  Uiso   1.00
Si67   Si    0.80646   0.32858   0.16635   0.01267  Uiso   1.00
Si68   Si    0.76989   0.30669   0.95403   0.01267  Uiso   1.00
Si69   Si    0.61692   0.30582   0.96995   0.01267  Uiso   1.00
Si70   Si    0.42351   0.11308   0.14858   0.01267  Uiso   1.00
Si71   Si    0.30829   0.12865   0.29742   0.01267  Uiso   1.00
Si72   Si    0.28002   0.11196   0.51737   0.01267  Uiso   1.00
Si73   Si    0.12192   0.11101   0.51384   0.01267  Uiso   1.00
Si74   Si    0.07027   0.12753   0.30114   0.01267  Uiso   1.00
Si75   Si    0.18482   0.11363   0.16033   0.01267  Uiso   1.00
Si76   Si    0.42118   0.22875   0.16372   0.01267  Uiso   1.00
Si77   Si    0.30640   0.20820   0.30641   0.01267  Uiso   1.00
Si78   Si    0.26805   0.22872   0.52203   0.01267  Uiso   1.00
Si79   Si    0.11496   0.22934   0.51084   0.01267  Uiso   1.00
Si80   Si    0.06642   0.20673   0.29902   0.01267  Uiso   1.00
Si81   Si    0.18482   0.22840   0.16959   0.01267  Uiso   1.00
Si82   Si    0.07563   0.17188   0.64840   0.01267  Uiso   1.00
Si83   Si    0.19132   0.15674   0.79576   0.01267  Uiso   1.00
Si84   Si    0.21907   0.17322   0.01629   0.01267  Uiso   1.00
Si85   Si    0.37729   0.17410   0.01371   0.01267  Uiso   1.00
Si86   Si    0.42912   0.15777   0.80083   0.01267  Uiso   1.00
Si87   Si    0.31523   0.17182   0.65964   0.01267  Uiso   1.00
Si88   Si    0.07749   0.05614   0.66382   0.01267  Uiso   1.00
Si89   Si    0.19167   0.07709   0.80669   0.01267  Uiso   1.00
Si90   Si    0.23056   0.05688   0.02157   0.01267  Uiso   1.00
Si91   Si    0.38363   0.05577   0.00999   0.01267  Uiso   1.00
Si92   Si    0.43255   0.07865   0.79862   0.01267  Uiso   1.00
Si93   Si    0.31351   0.05655   0.67125   0.01267  Uiso   1.00
Si94   Si    0.57284   0.40806   0.17991   0.01267  Uiso   1.00
Si95   Si    0.56346   0.32927   0.17629   0.01267  Uiso   1.00
Al96   Al    0.69190   0.30622   0.31060   0.01267  Uiso   1.00
O97    O     0.36825   0.42221   0.22911   0.01267  Uiso   1.00
O98    O     0.30966   0.42369   0.40174   0.01267  Uiso   1.00
O99    O     0.20115   0.42028   0.51120   0.01267  Uiso   1.00
O100   O     0.09423   0.42553   0.40005   0.01267  Uiso   1.00
O101   O     0.11167   0.42192   0.20722   0.01267  Uiso   1.00
O102   O     0.23854   0.41446   0.24155   0.01267  Uiso   1.00
O103   O     0.36460   0.30845   0.24784   0.01267  Uiso   1.00
O104   O     0.30677   0.31418   0.41864   0.01267  Uiso   1.00
O105   O     0.19134   0.31771   0.50748   0.01267  Uiso   1.00
O106   O     0.08405   0.30980   0.39982   0.01267  Uiso   1.00
O107   O     0.10961   0.31386   0.20809   0.01267  Uiso   1.00
O108   O     0.23508   0.31805   0.25635   0.01267  Uiso   1.00
O109   O     0.31815   0.36680   0.30171   0.01267  Uiso   1.00
O110   O     0.07938   0.36796   0.30982   0.01267  Uiso   1.00
O111   O     0.42489   0.45576   0.08386   0.01267  Uiso   1.00
O112   O     0.41380   0.39022   0.06983   0.01267  Uiso   1.00
O113   O     0.39404   0.32510   0.06173   0.01267  Uiso   1.00
O114   O     0.19615   0.45786   0.10801   0.01267  Uiso   1.00
O115   O     0.18592   0.39313   0.07324   0.01267  Uiso   1.00
O116   O     0.19898   0.32727   0.06924   0.01267  Uiso   1.00
O117   O     0.99314   0.41702   0.27807   0.01267  Uiso   1.00
O118   O     0.98806   0.32214   0.27318   0.01267  Uiso   1.00
O119   O     0.13376   0.36202   0.73073   0.01267  Uiso   1.00
O120   O     0.19157   0.36137   0.90377   0.01267  Uiso   1.00
O121   O     0.29795   0.36694   0.01685   0.01267  Uiso   1.00
O122   O     0.40151   0.35938   0.89828   0.01267  Uiso   1.00
O123   O     0.38783   0.36366   0.70420   0.01267  Uiso   1.00
O124   O     0.26255   0.37213   0.74433   0.01267  Uiso   1.00
O125   O     0.13399   0.47655   0.74692   0.01267  Uiso   1.00
O126   O     0.19314   0.47178   0.91660   0.01267  Uiso   1.00
O127   O     0.30690   0.46723   0.00947   0.01267  Uiso   1.00
O128   O     0.41268   0.47572   0.89793   0.01267  Uiso   1.00
O129   O     0.38919   0.47091   0.70632   0.01267  Uiso   1.00
O130   O     0.26347   0.46596   0.75321   0.01267  Uiso   1.00
O131   O     0.17973   0.41831   0.80437   0.01267  Uiso   1.00
O132   O     0.41911   0.41713   0.81043   0.01267  Uiso   1.00
O133   O     0.07462   0.32886   0.58765   0.01267  Uiso   1.00
O134   O     0.08975   0.39376   0.57053   0.01267  Uiso   1.00
O135   O     0.10206   0.45941   0.56385   0.01267  Uiso   1.00
O136   O     0.30049   0.32772   0.61012   0.01267  Uiso   1.00
O137   O     0.31098   0.39217   0.57158   0.01267  Uiso   1.00
O138   O     0.30147   0.45825   0.56613   0.01267  Uiso   1.00
O139   O     0.50499   0.36774   0.78007   0.01267  Uiso   1.00
O140   O     0.51011   0.46299   0.77392   0.01267  Uiso   1.00
O141   O     0.63362   0.17229   0.75471   0.01267  Uiso   1.00
O142   O     0.69463   0.17359   0.58350   0.01267  Uiso   1.00
O143   O     0.79927   0.17082   0.46523   0.01267  Uiso   1.00
O144   O     0.90314   0.17546   0.58286   0.01267  Uiso   1.00
O145   O     0.88838   0.17058   0.77752   0.01267  Uiso   1.00
O146   O     0.76209   0.16218   0.74572   0.01267  Uiso   1.00
O147   O     0.63300   0.05788   0.73062   0.01267  Uiso   1.00
O148   O     0.69070   0.06468   0.55917   0.01267  Uiso   1.00
O149   O     0.80562   0.06804   0.46872   0.01267  Uiso   1.00
O150   O     0.91131   0.05932   0.58004   0.01267  Uiso   1.00
O151   O     0.88783   0.06348   0.77190   0.01267  Uiso   1.00
O152   O     0.76274   0.06737   0.72128   0.01267  Uiso   1.00
O153   O     0.67997   0.11641   0.67986   0.01267  Uiso   1.00
O154   O     0.91870   0.11756   0.66947   0.01267  Uiso   1.00
O155   O     0.57345   0.20647   0.89508   0.01267  Uiso   1.00
O156   O     0.58548   0.14142   0.91523   0.01267  Uiso   1.00
O157   O     0.60135   0.07599   0.91355   0.01267  Uiso   1.00
O158   O     0.80447   0.20646   0.87790   0.01267  Uiso   1.00
O159   O     0.81511   0.14180   0.91442   0.01267  Uiso   1.00
O160   O     0.79813   0.07602   0.90963   0.01267  Uiso   1.00
O161   O     0.00547   0.16632   0.70225   0.01267  Uiso   1.00
O162   O     0.00869   0.07135   0.70476   0.01267  Uiso   1.00
O163   O     0.86679   0.11265   0.24930   0.01267  Uiso   1.00
O164   O     0.80410   0.10738   0.07970   0.01267  Uiso   1.00
O165   O     0.70041   0.11596   0.96179   0.01267  Uiso   1.00
O166   O     0.59824   0.10757   0.08223   0.01267  Uiso   1.00
O167   O     0.61231   0.11688   0.27562   0.01267  Uiso   1.00
O168   O     0.73859   0.12368   0.24083   0.01267  Uiso   1.00
O169   O     0.86438   0.22345   0.23598   0.01267  Uiso   1.00
O170   O     0.80335   0.22392   0.06749   0.01267  Uiso   1.00
O171   O     0.69182   0.21762   0.96898   0.01267  Uiso   1.00
O172   O     0.58625   0.22689   0.08122   0.01267  Uiso   1.00
O173   O     0.61031   0.21715   0.27220   0.01267  Uiso   1.00
O174   O     0.73579   0.20958   0.23036   0.01267  Uiso   1.00
O175   O     0.82165   0.16672   0.16037   0.01267  Uiso   1.00
O176   O     0.57652   0.16672   0.15630   0.01267  Uiso   1.00
O177   O     0.92393   0.07941   0.39425   0.01267  Uiso   1.00
O178   O     0.91155   0.14460   0.40988   0.01267  Uiso   1.00
O179   O     0.90060   0.21012   0.42018   0.01267  Uiso   1.00
O180   O     0.69594   0.07717   0.36639   0.01267  Uiso   1.00
O181   O     0.68946   0.14031   0.41655   0.01267  Uiso   1.00
O182   O     0.69462   0.20659   0.41672   0.01267  Uiso   1.00
O183   O     0.49464   0.11740   0.20042   0.01267  Uiso   1.00
O184   O     0.48958   0.21349   0.20546   0.01267  Uiso   1.00
O185   O     0.63390   0.36276   0.75689   0.01267  Uiso   1.00
O186   O     0.69097   0.36159   0.58367   0.01267  Uiso   1.00
O187   O     0.79881   0.36700   0.47318   0.01267  Uiso   1.00
O188   O     0.90785   0.35917   0.57714   0.01267  Uiso   1.00
O189   O     0.88750   0.36468   0.77113   0.01267  Uiso   1.00
O190   O     0.76177   0.37579   0.74109   0.01267  Uiso   1.00
O191   O     0.63363   0.47812   0.73224   0.01267  Uiso   1.00
O192   O     0.69015   0.47117   0.55961   0.01267  Uiso   1.00
O193   O     0.80657   0.46798   0.47298   0.01267  Uiso   1.00
O194   O     0.91511   0.47652   0.57767   0.01267  Uiso   1.00
O195   O     0.88821   0.47095   0.76839   0.01267  Uiso   1.00
O196   O     0.76253   0.46628   0.72077   0.01267  Uiso   1.00
O197   O     0.67486   0.41919   0.67814   0.01267  Uiso   1.00
O198   O     0.91962   0.41756   0.66341   0.01267  Uiso   1.00
O199   O     0.57335   0.32909   0.89770   0.01267  Uiso   1.00
O200   O     0.58276   0.39440   0.91395   0.01267  Uiso   1.00
O201   O     0.60159   0.45962   0.91510   0.01267  Uiso   1.00
O202   O     0.80063   0.32751   0.86247   0.01267  Uiso   1.00
O203   O     0.81500   0.39109   0.91367   0.01267  Uiso   1.00
O204   O     0.80031   0.45718   0.90748   0.01267  Uiso   1.00
O205   O     0.00643   0.36942   0.70161   0.01267  Uiso   1.00
O206   O     0.01006   0.46330   0.70474   0.01267  Uiso   1.00
O207   O     0.86603   0.42391   0.24613   0.01267  Uiso   1.00
O208   O     0.80172   0.42611   0.07761   0.01267  Uiso   1.00
O209   O     0.70019   0.41810   0.95503   0.01267  Uiso   1.00
O210   O     0.60122   0.42624   0.08183   0.01267  Uiso   1.00
O211   O     0.61266   0.42005   0.27643   0.01267  Uiso   1.00
O212   O     0.73832   0.41074   0.24118   0.01267  Uiso   1.00
O213   O     0.86415   0.30949   0.22739   0.01267  Uiso   1.00
O214   O     0.81033   0.31476   0.05358   0.01267  Uiso   1.00
O215   O     0.69302   0.31762   0.96775   0.01267  Uiso   1.00
O216   O     0.58898   0.30863   0.08255   0.01267  Uiso   1.00
O217   O     0.60251   0.31392   0.27665   0.01267  Uiso   1.00
O218   O     0.73489   0.32219   0.21245   0.01267  Uiso   1.00
O219   O     0.82390   0.36809   0.16534   0.01267  Uiso   1.00
O220   O     0.58137   0.36789   0.16605   0.01267  Uiso   1.00
O221   O     0.92311   0.45687   0.39096   0.01267  Uiso   1.00
O222   O     0.91006   0.39166   0.40693   0.01267  Uiso   1.00
O223   O     0.89462   0.32627   0.41172   0.01267  Uiso   1.00
O224   O     0.69880   0.45747   0.36800   0.01267  Uiso   1.00
O225   O     0.68746   0.39377   0.41548   0.01267  Uiso   1.00
O226   O     0.69966   0.32736   0.41980   0.01267  Uiso   1.00
O227   O     0.49595   0.41679   0.19731   0.01267  Uiso   1.00
O228   O     0.48669   0.32281   0.19997   0.01267  Uiso   1.00
O229   O     0.36704   0.11241   0.23296   0.01267  Uiso   1.00
O230   O     0.30925   0.11184   0.40610   0.01267  Uiso   1.00
O231   O     0.20084   0.11626   0.51552   0.01267  Uiso   1.00
O232   O     0.09532   0.10961   0.40165   0.01267  Uiso   1.00
O233   O     0.11197   0.11338   0.20830   0.01267  Uiso   1.00
O234   O     0.23777   0.12144   0.24663   0.01267  Uiso   1.00
O235   O     0.36648   0.22686   0.25071   0.01267  Uiso   1.00
O236   O     0.30619   0.22165   0.41897   0.01267  Uiso   1.00
O237   O     0.19162   0.21755   0.51127   0.01267  Uiso   1.00
O238   O     0.08594   0.22567   0.40040   0.01267  Uiso   1.00
O239   O     0.11069   0.22115   0.20865   0.01267  Uiso   1.00
O240   O     0.23665   0.21704   0.25474   0.01267  Uiso   1.00
O241   O     0.31914   0.16852   0.30460   0.01267  Uiso   1.00
O242   O     0.08062   0.16736   0.31196   0.01267  Uiso   1.00
O243   O     0.42336   0.07818   0.08899   0.01267  Uiso   1.00
O244   O     0.41142   0.14341   0.07160   0.01267  Uiso   1.00
O245   O     0.39639   0.20894   0.06655   0.01267  Uiso   1.00
O246   O     0.19883   0.07747   0.11236   0.01267  Uiso   1.00
O247   O     0.18785   0.14207   0.07572   0.01267  Uiso   1.00
O248   O     0.19884   0.20806   0.06839   0.01267  Uiso   1.00
O249   O     0.99386   0.11881   0.28033   0.01267  Uiso   1.00
O250   O     0.98949   0.21353   0.27511   0.01267  Uiso   1.00
O251   O     0.13301   0.17331   0.73116   0.01267  Uiso   1.00
O252   O     0.19008   0.17303   0.90503   0.01267  Uiso   1.00
O253   O     0.29837   0.16915   0.01520   0.01267  Uiso   1.00
O254   O     0.40419   0.17557   0.90160   0.01267  Uiso   1.00
O255   O     0.38799   0.17217   0.70780   0.01267  Uiso   1.00
O256   O     0.26210   0.16456   0.74613   0.01267  Uiso   1.00
O257   O     0.13197   0.05848   0.75077   0.01267  Uiso   1.00
O258   O     0.19104   0.06508   0.92065   0.01267  Uiso   1.00
O259   O     0.30716   0.06762   0.00746   0.01267  Uiso   1.00
O260   O     0.41496   0.05970   0.90087   0.01267  Uiso   1.00
O261   O     0.38776   0.06385   0.70975   0.01267  Uiso   1.00
O262   O     0.26189   0.06737   0.75715   0.01267  Uiso   1.00
O263   O     0.18047   0.11689   0.80065   0.01267  Uiso   1.00
O264   O     0.41797   0.11799   0.81120   0.01267  Uiso   1.00
O265   O     0.07395   0.20679   0.58836   0.01267  Uiso   1.00
O266   O     0.08785   0.14185   0.57084   0.01267  Uiso   1.00
O267   O     0.10257   0.07631   0.56704   0.01267  Uiso   1.00
O268   O     0.30231   0.20796   0.61031   0.01267  Uiso   1.00
O269   O     0.31174   0.14316   0.57590   0.01267  Uiso   1.00
O270   O     0.29957   0.07722   0.57051   0.01267  Uiso   1.00
O271   O     0.50575   0.16631   0.78061   0.01267  Uiso   1.00
O272   O     0.50954   0.07241   0.77273   0.01267  Uiso   1.00
O273   O     0.43148   0.26744   0.13326   0.01267  Uiso   1.00
O274   O     0.19341   0.26764   0.14593   0.01267  Uiso   1.00
O275   O     0.27386   0.26782   0.54905   0.01267  Uiso   1.00
O276   O     0.10898   0.26779   0.54470   0.01267  Uiso   1.00
O277   O     0.06774   0.01765   0.63246   0.01267  Uiso   1.00
O278   O     0.30545   0.01742   0.64634   0.01267  Uiso   1.00
O279   O     0.22550   0.01774   0.04778   0.01267  Uiso   1.00
O280   O     0.38956   0.01726   0.04407   0.01267  Uiso   1.00
O281   O     0.56459   0.01782   0.84682   0.01267  Uiso   1.00
O282   O     0.80405   0.01680   0.83110   0.01267  Uiso   1.00
O283   O     0.72420   0.01764   0.43053   0.01267  Uiso   1.00
O284   O     0.88844   0.01805   0.43311   0.01267  Uiso   1.00
O285   O     0.92950   0.26791   0.34223   0.01267  Uiso   1.00
O286   O     0.69487   0.26414   0.32486   0.01267  Uiso   1.00
O287   O     0.77408   0.26747   0.92749   0.01267  Uiso   1.00
O288   O     0.60906   0.26772   0.93402   0.01267  Uiso   1.00
Si289  Si    0.42485   0.92114   0.14510   0.01267  Uiso   1.00
Si290  Si    0.30848   0.90672   0.29341   0.01267  Uiso   1.00
Si291  Si    0.28045   0.92374   0.51310   0.01267  Uiso   1.00
Si292  Si    0.12205   0.92469   0.51149   0.01267  Uiso   1.00
Si293  Si    0.06925   0.90781   0.29936   0.01267  Uiso   1.00
Si294  Si    0.18382   0.92176   0.15734   0.01267  Uiso   1.00
Si295  Si    0.41840   0.80596   0.16032   0.01267  Uiso   1.00
Si296  Si    0.30545   0.82716   0.30569   0.01267  Uiso   1.00
Si297  Si    0.26776   0.80683   0.52081   0.01267  Uiso   1.00
Si298  Si    0.11455   0.80617   0.50944   0.01267  Uiso   1.00
Si299  Si    0.06496   0.82858   0.29776   0.01267  Uiso   1.00
Si300  Si    0.18404   0.80677   0.17006   0.01267  Uiso   1.00
Si301  Si    0.07655   0.86370   0.64774   0.01267  Uiso   1.00
Si302  Si    0.19176   0.87864   0.79565   0.01267  Uiso   1.00
Si303  Si    0.21871   0.86200   0.01600   0.01267  Uiso   1.00
Si304  Si    0.37637   0.86065   0.01133   0.01267  Uiso   1.00
Si305  Si    0.42850   0.87731   0.79862   0.01267  Uiso   1.00
Si306  Si    0.31464   0.86406   0.65705   0.01267  Uiso   1.00
Si307  Si    0.07812   0.97903   0.66215   0.01267  Uiso   1.00
Si308  Si    0.19297   0.95801   0.80460   0.01267  Uiso   1.00
Si309  Si    0.23047   0.97875   0.02000   0.01267  Uiso   1.00
Si310  Si    0.38344   0.97896   0.00857   0.01267  Uiso   1.00
Si311  Si    0.43284   0.95656   0.79718   0.01267  Uiso   1.00
Si312  Si    0.31475   0.97816   0.66832   0.01267  Uiso   1.00
Si313  Si    0.57551   0.67137   0.83623   0.01267  Uiso   1.00
Si314  Si    0.69264   0.65598   0.69080   0.01267  Uiso   1.00
Si315  Si    0.71969   0.67301   0.46996   0.01267  Uiso   1.00
Si316  Si    0.87817   0.67518   0.46960   0.01267  Uiso   1.00
Si317  Si    0.92886   0.65731   0.68250   0.01267  Uiso   1.00
Si318  Si    0.81663   0.67024   0.82936   0.01267  Uiso   1.00
Si319  Si    0.57713   0.55623   0.81573   0.01267  Uiso   1.00
Si320  Si    0.69200   0.57673   0.67305   0.01267  Uiso   1.00
Si321  Si    0.72910   0.55677   0.45679   0.01267  Uiso   1.00
Si322  Si    0.88217   0.55628   0.46930   0.01267  Uiso   1.00
Si323  Si    0.93157   0.57806   0.68129   0.01267  Uiso   1.00
Si324  Si    0.81307   0.55600   0.80827   0.01267  Uiso   1.00
Si325  Si    0.92310   0.61413   0.33348   0.01267  Uiso   1.00
Si326  Si    0.80780   0.62777   0.18300   0.01267  Uiso   1.00
Si327  Si    0.77938   0.61021   0.96621   0.01267  Uiso   1.00
Si328  Si    0.62174   0.61027   0.96821   0.01267  Uiso   1.00
Si329  Si    0.57067   0.62721   0.17857   0.01267  Uiso   1.00
Si330  Si    0.68477   0.61461   0.32483   0.01267  Uiso   1.00
Si331  Si    0.92095   0.72878   0.31811   0.01267  Uiso   1.00
Si332  Si    0.80580   0.70597   0.17451   0.01267  Uiso   1.00
Si333  Si    0.76863   0.72891   0.96104   0.01267  Uiso   1.00
Si334  Si    0.61543   0.72939   0.97021   0.01267  Uiso   1.00
Si335  Si    0.56629   0.70585   0.17908   0.01267  Uiso   1.00
Si336  Si    0.68473   0.72529   0.31103   0.01267  Uiso   1.00
Si337  Si    0.57480   0.86387   0.83659   0.01267  Uiso   1.00
Si338  Si    0.69056   0.87990   0.68939   0.01267  Uiso   1.00
Si339  Si    0.71937   0.86159   0.47116   0.01267  Uiso   1.00
Si340  Si    0.87710   0.86096   0.46685   0.01267  Uiso   1.00
Si341  Si    0.92998   0.87785   0.67782   0.01267  Uiso   1.00
Si342  Si    0.81567   0.86474   0.82263   0.01267  Uiso   1.00
Si343  Si    0.57745   0.97941   0.81686   0.01267  Uiso   1.00
Si344  Si    0.69088   0.95856   0.67299   0.01267  Uiso   1.00
Si345  Si    0.72998   0.97861   0.45814   0.01267  Uiso   1.00
Si346  Si    0.88311   0.97969   0.46873   0.01267  Uiso   1.00
Si347  Si    0.93312   0.95689   0.67849   0.01267  Uiso   1.00
Si348  Si    0.81366   0.97774   0.80654   0.01267  Uiso   1.00
Si349  Si    0.92218   0.92208   0.33055   0.01267  Uiso   1.00
Si350  Si    0.80746   0.90690   0.18280   0.01267  Uiso   1.00
Si351  Si    0.77943   0.92315   0.96335   0.01267  Uiso   1.00
Si352  Si    0.62207   0.92471   0.96641   0.01267  Uiso   1.00
Si353  Si    0.68547   0.92032   0.32600   0.01267  Uiso   1.00
Si354  Si    0.91884   0.80666   0.31326   0.01267  Uiso   1.00
Si355  Si    0.80646   0.82858   0.16635   0.01267  Uiso   1.00
Si356  Si    0.76989   0.80669   0.95403   0.01267  Uiso   1.00
Si357  Si    0.61692   0.80582   0.96995   0.01267  Uiso   1.00
Si358  Si    0.42351   0.61308   0.14858   0.01267  Uiso   1.00
Si359  Si    0.30829   0.62865   0.29742   0.01267  Uiso   1.00
Si360  Si    0.28002   0.61196   0.51737   0.01267  Uiso   1.00
Si361  Si    0.12192   0.61101   0.51384   0.01267  Uiso   1.00
Si362  Si    0.07027   0.62753   0.30114   0.01267  Uiso   1.00
Si363  Si    0.18482   0.61363   0.16033   0.01267  Uiso   1.00
Si364  Si    0.42118   0.72875   0.16372   0.01267  Uiso   1.00
Si365  Si    0.30640   0.70820   0.30641   0.01267  Uiso   1.00
Si366  Si    0.26805   0.72872   0.52203   0.01267  Uiso   1.00
Si367  Si    0.11496   0.72934   0.51084   0.01267  Uiso   1.00
Si368  Si    0.06642   0.70673   0.29902   0.01267  Uiso   1.00
Si369  Si    0.18482   0.72840   0.16959   0.01267  Uiso   1.00
Si370  Si    0.07563   0.67188   0.64840   0.01267  Uiso   1.00
Si371  Si    0.19132   0.65674   0.79576   0.01267  Uiso   1.00
Si372  Si    0.21907   0.67322   0.01629   0.01267  Uiso   1.00
Si373  Si    0.37729   0.67410   0.01371   0.01267  Uiso   1.00
Si374  Si    0.42912   0.65777   0.80083   0.01267  Uiso   1.00
Si375  Si    0.31523   0.67182   0.65964   0.01267  Uiso   1.00
Si376  Si    0.07749   0.55614   0.66382   0.01267  Uiso   1.00
Si377  Si    0.19167   0.57709   0.80669   0.01267  Uiso   1.00
Si378  Si    0.23056   0.55688   0.02157   0.01267  Uiso   1.00
Si379  Si    0.38363   0.55577   0.00999   0.01267  Uiso   1.00
Si380  Si    0.43255   0.57865   0.79862   0.01267  Uiso   1.00
Si381  Si    0.31351   0.55655   0.67125   0.01267  Uiso   1.00
Si382  Si    0.57284   0.90806   0.17991   0.01267  Uiso   1.00
Si383  Si    0.56346   0.82927   0.17629   0.01267  Uiso   1.00
Al384  Al    0.69190   0.80622   0.31060   0.01267  Uiso   1.00
O385   O     0.36825   0.92221   0.22911   0.01267  Uiso   1.00
O386   O     0.30966   0.92369   0.40174   0.01267  Uiso   1.00
O387   O     0.20115   0.92028   0.51120   0.01267  Uiso   1.00
O388   O     0.09423   0.92553   0.40005   0.01267  Uiso   1.00
O389   O     0.11167   0.92192   0.20722   0.01267  Uiso   1.00
O390   O     0.23854   0.91446   0.24155   0.01267  Uiso   1.00
O391   O     0.36460   0.80845   0.24784   0.01267  Uiso   1.00
O392   O     0.30677   0.81418   0.41864   0.01267  Uiso   1.00
O393   O     0.19134   0.81771   0.50748   0.01267  Uiso   1.00
O394   O     0.08405   0.80980   0.39982   0.01267  Uiso   1.00
O395   O     0.10961   0.81386   0.20809   0.01267  Uiso   1.00
O396   O     0.23508   0.81805   0.25635   0.01267  Uiso   1.00
O397   O     0.31815   0.86680   0.30171   0.01267  Uiso   1.00
O398   O     0.07938   0.86796   0.30982   0.01267  Uiso   1.00
O399   O     0.42489   0.95576   0.08386   0.01267  Uiso   1.00
O400   O     0.41380   0.89022   0.06983   0.01267  Uiso   1.00
O401   O     0.39404   0.82510   0.06173   0.01267  Uiso   1.00
O402   O     0.19615   0.95786   0.10801   0.01267  Uiso   1.00
O403   O     0.18592   0.89313   0.07324   0.01267  Uiso   1.00
O404   O     0.19898   0.82727   0.06924   0.01267  Uiso   1.00
O405   O     0.99314   0.91702   0.27807   0.01267  Uiso   1.00
O406   O     0.98806   0.82214   0.27318   0.01267  Uiso   1.00
O407   O     0.13376   0.86202   0.73073   0.01267  Uiso   1.00
O408   O     0.19157   0.86137   0.90377   0.01267  Uiso   1.00
O409   O     0.29795   0.86694   0.01685   0.01267  Uiso   1.00
O410   O     0.40151   0.85938   0.89828   0.01267  Uiso   1.00
O411   O     0.38783   0.86366   0.70420   0.01267  Uiso   1.00
O412   O     0.26255   0.87213   0.74433   0.01267  Uiso   1.00
O413   O     0.13399   0.97655   0.74692   0.01267  Uiso   1.00
O414   O     0.19314   0.97178   0.91660   0.01267  Uiso   1.00
O415   O     0.30690   0.96723   0.00947   0.01267  Uiso   1.00
O416   O     0.41268   0.97572   0.89793   0.01267  Uiso   1.00
O417   O     0.38919   0.97091   0.70632   0.01267  Uiso   1.00
O418   O     0.26347   0.96596   0.75321   0.01267  Uiso   1.00
O419   O     0.17973   0.91831   0.80437   0.01267  Uiso   1.00
O420   O     0.41911   0.91713   0.81043   0.01267  Uiso   1.00
O421   O     0.07462   0.82886   0.58765   0.01267  Uiso   1.00
O422   O     0.08975   0.89376   0.57053   0.01267  Uiso   1.00
O423   O     0.10206   0.95941   0.56385   0.01267  Uiso   1.00
O424   O     0.30049   0.82772   0.61012   0.01267  Uiso   1.00
O425   O     0.31098   0.89217   0.57158   0.01267  Uiso   1.00
O426   O     0.30147   0.95825   0.56613   0.01267  Uiso   1.00
O427   O     0.50499   0.86774   0.78007   0.01267  Uiso   1.00
O428   O     0.51011   0.96299   0.77392   0.01267  Uiso   1.00
O429   O     0.63362   0.67229   0.75471   0.01267  Uiso   1.00
O430   O     0.69463   0.67359   0.58350   0.01267  Uiso   1.00
O431   O     0.79927   0.67082   0.46523   0.01267  Uiso   1.00
O432   O     0.90314   0.67546   0.58286   0.01267  Uiso   1.00
O433   O     0.88838   0.67058   0.77752   0.01267  Uiso   1.00
O434   O     0.76209   0.66218   0.74572   0.01267  Uiso   1.00
O435   O     0.63300   0.55788   0.73062   0.01267  Uiso   1.00
O436   O     0.69070   0.56468   0.55917   0.01267  Uiso   1.00
O437   O     0.80562   0.56804   0.46872   0.01267  Uiso   1.00
O438   O     0.91131   0.55932   0.58004   0.01267  Uiso   1.00
O439   O     0.88783   0.56347   0.77190   0.01267  Uiso   1.00
O440   O     0.76274   0.56737   0.72128   0.01267  Uiso   1.00
O441   O     0.67997   0.61641   0.67986   0.01267  Uiso   1.00
O442   O     0.91870   0.61756   0.66947   0.01267  Uiso   1.00
O443   O     0.57345   0.70647   0.89508   0.01267  Uiso   1.00
O444   O     0.58548   0.64142   0.91523   0.01267  Uiso   1.00
O445   O     0.60135   0.57599   0.91355   0.01267  Uiso   1.00
O446   O     0.80447   0.70646   0.87790   0.01267  Uiso   1.00
O447   O     0.81511   0.64180   0.91442   0.01267  Uiso   1.00
O448   O     0.79813   0.57602   0.90963   0.01267  Uiso   1.00
O449   O     0.00547   0.66632   0.70225   0.01267  Uiso   1.00
O450   O     0.00869   0.57135   0.70476   0.01267  Uiso   1.00
O451   O     0.86679   0.61265   0.24930   0.01267  Uiso   1.00
O452   O     0.80410   0.60738   0.07970   0.01267  Uiso   1.00
O453   O     0.70041   0.61596   0.96179   0.01267  Uiso   1.00
O454   O     0.59824   0.60757   0.08223   0.01267  Uiso   1.00
O455   O     0.61231   0.61688   0.27562   0.01267  Uiso   1.00
O456   O     0.73859   0.62368   0.24083   0.01267  Uiso   1.00
O457   O     0.86438   0.72345   0.23598   0.01267  Uiso   1.00
O458   O     0.80335   0.72392   0.06749   0.01267  Uiso   1.00
O459   O     0.69182   0.71762   0.96898   0.01267  Uiso   1.00
O460   O     0.58625   0.72689   0.08122   0.01267  Uiso   1.00
O461   O     0.61031   0.71715   0.27220   0.01267  Uiso   1.00
O462   O     0.73579   0.70958   0.23036   0.01267  Uiso   1.00
O463   O     0.82165   0.66672   0.16037   0.01267  Uiso   1.00
O464   O     0.57652   0.66672   0.15630   0.01267  Uiso   1.00
O465   O     0.92393   0.57941   0.39425   0.01267  Uiso   1.00
O466   O     0.91155   0.64460   0.40988   0.01267  Uiso   1.00
O467   O     0.90060   0.71012   0.42018   0.01267  Uiso   1.00
O468   O     0.69594   0.57717   0.36639   0.01267  Uiso   1.00
O469   O     0.68946   0.64031   0.41655   0.01267  Uiso   1.00
O470   O     0.69462   0.70659   0.41672   0.01267  Uiso   1.00
O471   O     0.49464   0.61740   0.20042   0.01267  Uiso   1.00
O472   O     0.48958   0.71349   0.20546   0.01267  Uiso   1.00
O473   O     0.63390   0.86276   0.75689   0.01267  Uiso   1.00
O474   O     0.69097   0.86159   0.58367   0.01267  Uiso   1.00
O475   O     0.79881   0.86700   0.47318   0.01267  Uiso   1.00
O476   O     0.90785   0.85917   0.57714   0.01267  Uiso   1.00
O477   O     0.88750   0.86468   0.77113   0.01267  Uiso   1.00
O478   O     0.76177   0.87579   0.74109   0.01267  Uiso   1.00
O479   O     0.63363   0.97812   0.73224   0.01267  Uiso   1.00
O480   O     0.69015   0.97117   0.55961   0.01267  Uiso   1.00
O481   O     0.80657   0.96798   0.47298   0.01267  Uiso   1.00
O482   O     0.91511   0.97652   0.57767   0.01267  Uiso   1.00
O483   O     0.88821   0.97095   0.76839   0.01267  Uiso   1.00
O484   O     0.76253   0.96628   0.72077   0.01267  Uiso   1.00
O485   O     0.67486   0.91919   0.67814   0.01267  Uiso   1.00
O486   O     0.91962   0.91756   0.66341   0.01267  Uiso   1.00
O487   O     0.57335   0.82909   0.89770   0.01267  Uiso   1.00
O488   O     0.58276   0.89440   0.91395   0.01267  Uiso   1.00
O489   O     0.60159   0.95962   0.91510   0.01267  Uiso   1.00
O490   O     0.80063   0.82751   0.86247   0.01267  Uiso   1.00
O491   O     0.81500   0.89109   0.91367   0.01267  Uiso   1.00
O492   O     0.80031   0.95718   0.90748   0.01267  Uiso   1.00
O493   O     0.00643   0.86942   0.70161   0.01267  Uiso   1.00
O494   O     0.01006   0.96330   0.70474   0.01267  Uiso   1.00
O495   O     0.86603   0.92391   0.24613   0.01267  Uiso   1.00
O496   O     0.80172   0.92610   0.07761   0.01267  Uiso   1.00
O497   O     0.70019   0.91810   0.95503   0.01267  Uiso   1.00
O498   O     0.60122   0.92624   0.08183   0.01267  Uiso   1.00
O499   O     0.61266   0.92005   0.27643   0.01267  Uiso   1.00
O500   O     0.73832   0.91073   0.24118   0.01267  Uiso   1.00
O501   O     0.86415   0.80949   0.22739   0.01267  Uiso   1.00
O502   O     0.81033   0.81476   0.05358   0.01267  Uiso   1.00
O503   O     0.69302   0.81762   0.96775   0.01267  Uiso   1.00
O504   O     0.58898   0.80863   0.08255   0.01267  Uiso   1.00
O505   O     0.60251   0.81392   0.27665   0.01267  Uiso   1.00
O506   O     0.73489   0.82219   0.21245   0.01267  Uiso   1.00
O507   O     0.82390   0.86809   0.16534   0.01267  Uiso   1.00
O508   O     0.58137   0.86789   0.16605   0.01267  Uiso   1.00
O509   O     0.92311   0.95687   0.39096   0.01267  Uiso   1.00
O510   O     0.91006   0.89166   0.40693   0.01267  Uiso   1.00
O511   O     0.89462   0.82627   0.41172   0.01267  Uiso   1.00
O512   O     0.69880   0.95747   0.36800   0.01267  Uiso   1.00
O513   O     0.68746   0.89377   0.41548   0.01267  Uiso   1.00
O514   O     0.69966   0.82736   0.41980   0.01267  Uiso   1.00
O515   O     0.49595   0.91679   0.19731   0.01267  Uiso   1.00
O516   O     0.48669   0.82281   0.19997   0.01267  Uiso   1.00
O517   O     0.36704   0.61241   0.23296   0.01267  Uiso   1.00
O518   O     0.30925   0.61184   0.40610   0.01267  Uiso   1.00
O519   O     0.20084   0.61626   0.51552   0.01267  Uiso   1.00
O520   O     0.09532   0.60961   0.40165   0.01267  Uiso   1.00
O521   O     0.11197   0.61338   0.20830   0.01267  Uiso   1.00
O522   O     0.23777   0.62144   0.24663   0.01267  Uiso   1.00
O523   O     0.36648   0.72686   0.25071   0.01267  Uiso   1.00
O524   O     0.30619   0.72165   0.41897   0.01267  Uiso   1.00
O525   O     0.19162   0.71755   0.51127   0.01267  Uiso   1.00
O526   O     0.08594   0.72567   0.40040   0.01267  Uiso   1.00
O527   O     0.11069   0.72115   0.20865   0.01267  Uiso   1.00
O528   O     0.23665   0.71704   0.25474   0.01267  Uiso   1.00
O529   O     0.31914   0.66852   0.30460   0.01267  Uiso   1.00
O530   O     0.08062   0.66736   0.31196   0.01267  Uiso   1.00
O531   O     0.42336   0.57818   0.08899   0.01267  Uiso   1.00
O532   O     0.41142   0.64341   0.07160   0.01267  Uiso   1.00
O533   O     0.39639   0.70894   0.06655   0.01267  Uiso   1.00
O534   O     0.19883   0.57747   0.11236   0.01267  Uiso   1.00
O535   O     0.18785   0.64207   0.07572   0.01267  Uiso   1.00
O536   O     0.19884   0.70806   0.06839   0.01267  Uiso   1.00
O537   O     0.99386   0.61881   0.28033   0.01267  Uiso   1.00
O538   O     0.98949   0.71353   0.27511   0.01267  Uiso   1.00
O539   O     0.13301   0.67331   0.73116   0.01267  Uiso   1.00
O540   O     0.19008   0.67303   0.90503   0.01267  Uiso   1.00
O541   O     0.29837   0.66915   0.01520   0.01267  Uiso   1.00
O542   O     0.40419   0.67557   0.90160   0.01267  Uiso   1.00
O543   O     0.38799   0.67217   0.70780   0.01267  Uiso   1.00
O544   O     0.26210   0.66456   0.74613   0.01267  Uiso   1.00
O545   O     0.13197   0.55848   0.75077   0.01267  Uiso   1.00
O546   O     0.19104   0.56508   0.92065   0.01267  Uiso   1.00
O547   O     0.30716   0.56762   0.00746   0.01267  Uiso   1.00
O548   O     0.41496   0.55970   0.90087   0.01267  Uiso   1.00
O549   O     0.38776   0.56385   0.70975   0.01267  Uiso   1.00
O550   O     0.26189   0.56737   0.75715   0.01267  Uiso   1.00
O551   O     0.18047   0.61689   0.80065   0.01267  Uiso   1.00
O552   O     0.41797   0.61799   0.81120   0.01267  Uiso   1.00
O553   O     0.07395   0.70679   0.58836   0.01267  Uiso   1.00
O554   O     0.08785   0.64185   0.57084   0.01267  Uiso   1.00
O555   O     0.10257   0.57631   0.56704   0.01267  Uiso   1.00
O556   O     0.30231   0.70796   0.61031   0.01267  Uiso   1.00
O557   O     0.31174   0.64316   0.57590   0.01267  Uiso   1.00
O558   O     0.29957   0.57722   0.57051   0.01267  Uiso   1.00
O559   O     0.50575   0.66631   0.78061   0.01267  Uiso   1.00
O560   O     0.50954   0.57241   0.77273   0.01267  Uiso   1.00
O561   O     0.43148   0.76744   0.13326   0.01267  Uiso   1.00
O562   O     0.19341   0.76764   0.14593   0.01267  Uiso   1.00
O563   O     0.27386   0.76782   0.54905   0.01267  Uiso   1.00
O564   O     0.10898   0.76779   0.54470   0.01267  Uiso   1.00
O565   O     0.06774   0.51765   0.63246   0.01267  Uiso   1.00
O566   O     0.30545   0.51742   0.64634   0.01267  Uiso   1.00
O567   O     0.22550   0.51774   0.04778   0.01267  Uiso   1.00
O568   O     0.38956   0.51726   0.04407   0.01267  Uiso   1.00
O569   O     0.56459   0.51782   0.84682   0.01267  Uiso   1.00
O570   O     0.80405   0.51680   0.83110   0.01267  Uiso   1.00
O571   O     0.72420   0.51764   0.43053   0.01267  Uiso   1.00
O572   O     0.88844   0.51805   0.43311   0.01267  Uiso   1.00
O573   O     0.92950   0.76791   0.34223   0.01267  Uiso   1.00
O574   O     0.69487   0.76414   0.32486   0.01267  Uiso   1.00
O575   O     0.77408   0.76747   0.92749   0.01267  Uiso   1.00
O576   O     0.60906   0.76772   0.93402   0.01267  Uiso   1.00
H577   H     0.57301   0.80370   0.32747   0.01267  Uiso   1.00
H578   H     0.51515   0.79440   0.69995   0.01267  Uiso   1.00
H579   H     0.61453   0.79256   0.57265   0.01267  Uiso   1.00
H580   H     0.40482   0.77398   0.61747   0.01267  Uiso   1.00
H581   H     0.42303   0.75721   0.43051   0.01267  Uiso   1.00
C582   C     0.45162   0.77549   0.57888   0.01267  Uiso   1.00
C583   C     0.45929   0.76666   0.48196   0.01267  Uiso   1.00
C584   C     0.51130   0.78642   0.62349   0.01267  Uiso   1.00
C585   C     0.56371   0.78559   0.56008   0.01267  Uiso   1.00
S586   S     0.54018   0.77038   0.44697   0.01267  Uiso   1.00
loop_
_geom_bond_atom_site_label_1
_geom_bond_atom_site_label_2
_geom_bond_distance
_geom_bond_site_symmetry_2
_ccdc_geom_bond_type
Si1    O97     1.622   .     S
Si1    O111    1.624   .     S
Si1    O112    1.629   .     S
Si1    O227    1.623   .     S
Si2    O97     1.623   .     S
Si2    O98     1.623   .     S
Si2    O102    1.621   .     S
Si2    O109    1.626   .     S
Si3    O98     1.624   .     S
Si3    O99     1.623   .     S
Si3    O137    1.624   .     S
Si3    O138    1.625   .     S
Si4    O99     1.622   .     S
Si4    O100    1.616   .     S
Si4    O134    1.621   .     S
Si4    O135    1.623   .     S
Si5    O100    1.625   .     S
Si5    O101    1.622   .     S
Si5    O110    1.627   .     S
Si5    O117    1.621   1_455 S
Si6    O101    1.618   .     S
Si6    O102    1.625   .     S
Si6    O114    1.622   .     S
Si6    O115    1.625   .     S
Si7    O103    1.619   .     S
Si7    O113    1.623   .     S
Si7    O228    1.640   .     S
Si7    O273    1.619   .     S
Si8    O103    1.625   .     S
Si8    O104    1.620   .     S
Si8    O108    1.626   .     S
Si8    O109    1.621   .     S
Si9    O104    1.625   .     S
Si9    O105    1.628   .     S
Si9    O136    1.621   .     S
Si9    O275    1.624   .     S
Si10   O105    1.633   .     S
Si10   O106    1.620   .     S
Si10   O133    1.621   .     S
Si10   O276    1.623   .     S
Si11   O106    1.626   .     S
Si11   O107    1.631   .     S
Si11   O110    1.624   .     S
Si11   O118    1.624   1_455 S
Si12   O107    1.627   .     S
Si12   O108    1.632   .     S
Si12   O116    1.627   .     S
Si12   O274    1.623   .     S
Si13   O119    1.623   .     S
Si13   O133    1.626   .     S
Si13   O134    1.624   .     S
Si13   O205    1.621   .     S
Si14   O119    1.620   .     S
Si14   O120    1.624   .     S
Si14   O124    1.623   .     S
Si14   O131    1.623   .     S
Si15   O115    1.621   .     S
Si15   O116    1.626   .     S
Si15   O120    1.622   1_554 S
Si15   O121    1.627   .     S
Si16   O112    1.624   .     S
Si16   O113    1.629   .     S
Si16   O121    1.620   .     S
Si16   O122    1.618   1_554 S
Si17   O122    1.629   .     S
Si17   O123    1.624   .     S
Si17   O132    1.625   .     S
Si17   O139    1.626   .     S
Si18   O123    1.624   .     S
Si18   O124    1.623   .     S
Si18   O136    1.624   .     S
Si18   O137    1.623   .     S
Si19   O125    1.623   .     S
Si19   O135    1.627   .     S
Si19   O206    1.630   .     S
Si19   O565    1.622   .     S
Si20   O125    1.618   .     S
Si20   O126    1.619   .     S
Si20   O130    1.628   .     S
Si20   O131    1.623   .     S
Si21   O114    1.619   .     S
Si21   O126    1.622   1_554 S
Si21   O127    1.632   .     S
Si21   O567    1.621   .     S
Si22   O111    1.623   .     S
Si22   O127    1.630   .     S
Si22   O128    1.621   1_554 S
Si22   O568    1.623   .     S
Si23   O128    1.624   .     S
Si23   O129    1.628   .     S
Si23   O132    1.624   .     S
Si23   O140    1.627   .     S
Si24   O129    1.629   .     S
Si24   O130    1.630   .     S
Si24   O138    1.626   .     S
Si24   O566    1.622   .     S
Si25   O141    1.620   .     S
Si25   O155    1.627   .     S
Si25   O156    1.628   .     S
Si25   O271    1.623   .     S
Si26   O141    1.622   .     S
Si26   O142    1.620   .     S
Si26   O146    1.620   .     S
Si26   O153    1.624   .     S
Si27   O142    1.623   .     S
Si27   O143    1.626   .     S
Si27   O181    1.627   .     S
Si27   O182    1.618   .     S
Si28   O143    1.619   .     S
Si28   O144    1.620   .     S
Si28   O178    1.625   .     S
Si28   O179    1.625   .     S
Si29   O144    1.625   .     S
Si29   O145    1.622   .     S
Si29   O154    1.626   .     S
Si29   O161    1.626   1_655 S
Si30   O145    1.622   .     S
Si30   O146    1.623   .     S
Si30   O158    1.622   .     S
Si30   O159    1.627   .     S
Si31   O147    1.623   .     S
Si31   O157    1.626   .     S
Si31   O272    1.633   .     S
Si31   O281    1.625   .     S
Si32   O147    1.622   .     S
Si32   O148    1.621   .     S
Si32   O152    1.628   .     S
Si32   O153    1.622   .     S
Si33   O148    1.626   .     S
Si33   O149    1.633   .     S
Si33   O180    1.625   .     S
Si33   O283    1.621   .     S
Si34   O149    1.631   .     S
Si34   O150    1.622   .     S
Si34   O177    1.621   .     S
Si34   O284    1.623   .     S
Si35   O150    1.623   .     S
Si35   O151    1.628   .     S
Si35   O154    1.622   .     S
Si35   O162    1.627   1_655 S
Si36   O151    1.629   .     S
Si36   O152    1.631   .     S
Si36   O160    1.625   .     S
Si36   O282    1.621   .     S
Si37   O163    1.621   .     S
Si37   O177    1.625   .     S
Si37   O178    1.626   .     S
Si37   O249    1.623   .     S
Si38   O163    1.621   .     S
Si38   O164    1.628   .     S
Si38   O168    1.622   .     S
Si38   O175    1.625   .     S
Si39   O159    1.626   .     S
Si39   O160    1.624   .     S
Si39   O164    1.625   1_556 S
Si39   O165    1.627   .     S
Si40   O156    1.625   .     S
Si40   O157    1.624   .     S
Si40   O165    1.622   .     S
Si40   O166    1.623   1_556 S
Si41   O166    1.629   .     S
Si41   O167    1.622   .     S
Si41   O176    1.626   .     S
Si41   O183    1.626   .     S
Si42   O167    1.624   .     S
Si42   O168    1.623   .     S
Si42   O180    1.627   .     S
Si42   O181    1.624   .     S
Si43   O169    1.619   .     S
Si43   O179    1.629   .     S
Si43   O250    1.634   .     S
Si43   O285    1.621   .     S
Si44   O169    1.619   .     S
Si44   O170    1.623   .     S
Si44   O174    1.622   .     S
Si44   O175    1.627   .     S
Si45   O158    1.621   .     S
Si45   O170    1.622   1_556 S
Si45   O171    1.634   .     S
Si45   O287    1.624   .     S
Si46   O155    1.622   .     S
Si46   O171    1.628   .     S
Si46   O172    1.622   1_556 S
Si46   O288    1.627   .     S
Si47   O172    1.627   .     S
Si47   O173    1.617   .     S
Si47   O176    1.622   .     S
Si47   O184    1.633   .     S
Si48   O173    1.640   .     S
Si48   O174    1.638   .     S
Si48   O182    1.633   .     S
Si48   O286    1.592   .     S
Si49   O139    1.625   .     S
Si49   O185    1.619   .     S
Si49   O199    1.629   .     S
Si49   O200    1.627   .     S
Si50   O185    1.627   .     S
Si50   O186    1.614   .     S
Si50   O190    1.621   .     S
Si50   O197    1.624   .     S
Si51   O186    1.633   .     S
Si51   O187    1.634   .     S
Si51   O225    1.637   .     S
Si51   O226    1.599   .     S
Si52   O187    1.616   .     S
Si52   O188    1.625   .     S
Si52   O222    1.626   .     S
Si52   O223    1.627   .     S
Si53   O188    1.625   .     S
Si53   O189    1.622   .     S
Si53   O198    1.627   .     S
Si53   O205    1.627   1_655 S
Si54   O189    1.622   .     S
Si54   O190    1.622   .     S
Si54   O202    1.625   .     S
Si54   O203    1.631   .     S
Si55   O140    1.632   .     S
Si55   O191    1.622   .     S
Si55   O201    1.630   .     S
Si55   O569    1.623   .     S
Si56   O191    1.622   .     S
Si56   O192    1.620   .     S
Si56   O196    1.629   .     S
Si56   O197    1.622   .     S
Si57   O192    1.626   .     S
Si57   O193    1.632   .     S
Si57   O224    1.622   .     S
Si57   O571    1.622   .     S
Si58   O193    1.631   .     S
Si58   O194    1.622   .     S
Si58   O221    1.621   .     S
Si58   O572    1.624   .     S
Si59   O194    1.623   .     S
Si59   O195    1.627   .     S
Si59   O198    1.623   .     S
Si59   O206    1.629   1_655 S
Si60   O195    1.628   .     S
Si60   O196    1.630   .     S
Si60   O204    1.624   .     S
Si60   O570    1.622   .     S
Si61   O117    1.625   .     S
Si61   O207    1.622   .     S
Si61   O221    1.626   .     S
Si61   O222    1.624   .     S
Si62   O207    1.624   .     S
Si62   O208    1.628   .     S
Si62   O212    1.624   .     S
Si62   O219    1.619   .     S
Si63   O203    1.629   .     S
Si63   O204    1.624   .     S
Si63   O208    1.621   1_556 S
Si63   O209    1.632   .     S
Si64   O200    1.627   .     S
Si64   O201    1.625   .     S
Si64   O209    1.622   .     S
Si64   O210    1.624   1_556 S
Si65   O211    1.630   .     S
Si65   O212    1.623   .     S
Si65   O224    1.627   .     S
Si65   O225    1.619   .     S
Si66   O118    1.635   .     S
Si66   O213    1.618   .     S
Si66   O223    1.630   .     S
Si66   O285    1.626   .     S
Si67   O213    1.632   .     S
Si67   O214    1.631   .     S
Si67   O218    1.607   .     S
Si67   O219    1.633   .     S
Si68   O202    1.624   .     S
Si68   O214    1.617   1_556 S
Si68   O215    1.638   .     S
Si68   O287    1.625   .     S
Si69   O199    1.622   .     S
Si69   O215    1.623   .     S
Si69   O216    1.635   1_556 S
Si69   O288    1.620   .     S
Si70   O183    1.622   .     S
Si70   O229    1.623   .     S
Si70   O243    1.624   .     S
Si70   O244    1.627   .     S
Si71   O229    1.621   .     S
Si71   O230    1.623   .     S
Si71   O234    1.621   .     S
Si71   O241    1.626   .     S
Si72   O230    1.623   .     S
Si72   O231    1.623   .     S
Si72   O269    1.623   .     S
Si72   O270    1.625   .     S
Si73   O231    1.622   .     S
Si73   O232    1.618   .     S
Si73   O266    1.621   .     S
Si73   O267    1.623   .     S
Si74   O232    1.626   .     S
Si74   O233    1.623   .     S
Si74   O242    1.627   .     S
Si74   O249    1.622   1_455 S
Si75   O233    1.621   .     S
Si75   O234    1.625   .     S
Si75   O246    1.623   .     S
Si75   O247    1.624   .     S
Si76   O184    1.626   .     S
Si76   O235    1.625   .     S
Si76   O245    1.624   .     S
Si76   O273    1.627   .     S
Si77   O235    1.623   .     S
Si77   O236    1.622   .     S
Si77   O240    1.625   .     S
Si77   O241    1.621   .     S
Si78   O236    1.625   .     S
Si78   O237    1.628   .     S
Si78   O268    1.620   .     S
Si78   O275    1.624   .     S
Si79   O237    1.633   .     S
Si79   O238    1.619   .     S
Si79   O265    1.621   .     S
Si79   O276    1.623   .     S
Si80   O238    1.624   .     S
Si80   O239    1.629   .     S
Si80   O242    1.623   .     S
Si80   O250    1.625   1_455 S
Si81   O239    1.627   .     S
Si81   O240    1.632   .     S
Si81   O248    1.626   .     S
Si81   O274    1.624   .     S
Si82   O161    1.621   .     S
Si82   O251    1.623   .     S
Si82   O265    1.627   .     S
Si82   O266    1.625   .     S
Si83   O251    1.621   .     S
Si83   O252    1.623   .     S
Si83   O256    1.622   .     S
Si83   O263    1.624   .     S
Si84   O247    1.622   .     S
Si84   O248    1.627   .     S
Si84   O252    1.622   1_554 S
Si84   O253    1.625   .     S
Si85   O244    1.623   .     S
Si85   O245    1.626   .     S
Si85   O253    1.621   .     S
Si85   O254    1.618   1_554 S
Si86   O254    1.626   .     S
Si86   O255    1.623   .     S
Si86   O264    1.626   .     S
Si86   O271    1.622   .     S
Si87   O255    1.621   .     S
Si87   O256    1.623   .     S
Si87   O268    1.625   .     S
Si87   O269    1.624   .     S
Si88   O162    1.628   .     S
Si88   O257    1.624   .     S
Si88   O267    1.626   .     S
Si88   O277    1.622   .     S
Si89   O257    1.619   .     S
Si89   O258    1.621   .     S
Si89   O262    1.629   .     S
Si89   O263    1.623   .     S
Si90   O246    1.621   .     S
Si90   O258    1.624   1_554 S
Si90   O259    1.631   .     S
Si90   O279    1.621   .     S
Si91   O243    1.621   .     S
Si91   O259    1.631   .     S
Si91   O260    1.620   1_554 S
Si91   O280    1.625   .     S
Si92   O260    1.624   .     S
Si92   O261    1.627   .     S
Si92   O264    1.623   .     S
Si92   O272    1.627   .     S
Si93   O261    1.628   .     S
Si93   O262    1.630   .     S
Si93   O270    1.626   .     S
Si93   O278    1.622   .     S
Si94   O210    1.625   .     S
Si94   O211    1.616   .     S
Si94   O220    1.640   .     S
Si94   O227    1.623   .     S
Si95   O216    1.607   .     S
Si95   O217    1.695   .     S
Si95   O220    1.605   .     S
Si95   O228    1.618   .     S
Al96   O217    1.905   .     S
Al96   O218    1.719   .     S
Al96   O226    1.718   .     S
Al96   O286    1.709   .     S
O117   Si5     1.621   1_655 S
O118   Si11    1.624   1_655 S
O120   Si15    1.622   1_556 S
O122   Si16    1.618   1_556 S
O126   Si21    1.622   1_556 S
O128   Si22    1.621   1_556 S
O161   Si29    1.626   1_455 S
O162   Si35    1.627   1_455 S
O164   Si39    1.625   1_554 S
O166   Si40    1.623   1_554 S
O170   Si45    1.622   1_554 S
O172   Si46    1.622   1_554 S
O205   Si53    1.627   1_455 S
O206   Si59    1.629   1_455 S
O208   Si63    1.621   1_554 S
O210   Si64    1.624   1_554 S
O214   Si68    1.617   1_554 S
O216   Si69    1.635   1_554 S
O249   Si74    1.622   1_655 S
O250   Si80    1.625   1_655 S
O252   Si84    1.622   1_556 S
O254   Si85    1.618   1_556 S
O258   Si90    1.624   1_556 S
O260   Si91    1.620   1_556 S
O277   Si307   1.622   1_545 S
O278   Si312   1.622   1_545 S
O279   Si309   1.621   1_545 S
O280   Si310   1.623   1_545 S
O281   Si343   1.623   1_545 S
O282   Si348   1.622   1_545 S
O283   Si345   1.622   1_545 S
O284   Si346   1.624   1_545 S
Si289  O385    1.622   .     S
Si289  O399    1.624   .     S
Si289  O400    1.629   .     S
Si289  O515    1.623   .     S
Si290  O385    1.623   .     S
Si290  O386    1.623   .     S
Si290  O390    1.621   .     S
Si290  O397    1.626   .     S
Si291  O386    1.624   .     S
Si291  O387    1.623   .     S
Si291  O425    1.624   .     S
Si291  O426    1.625   .     S
Si292  O387    1.622   .     S
Si292  O388    1.616   .     S
Si292  O422    1.621   .     S
Si292  O423    1.623   .     S
Si293  O388    1.625   .     S
Si293  O389    1.622   .     S
Si293  O398    1.627   .     S
Si293  O405    1.621   1_455 S
Si294  O389    1.618   .     S
Si294  O390    1.625   .     S
Si294  O402    1.622   .     S
Si294  O403    1.625   .     S
Si295  O391    1.619   .     S
Si295  O401    1.623   .     S
Si295  O516    1.640   .     S
Si295  O561    1.619   .     S
Si296  O391    1.625   .     S
Si296  O392    1.620   .     S
Si296  O396    1.626   .     S
Si296  O397    1.621   .     S
Si297  O392    1.625   .     S
Si297  O393    1.628   .     S
Si297  O424    1.621   .     S
Si297  O563    1.624   .     S
Si298  O393    1.633   .     S
Si298  O394    1.620   .     S
Si298  O421    1.621   .     S
Si298  O564    1.623   .     S
Si299  O394    1.626   .     S
Si299  O395    1.631   .     S
Si299  O398    1.624   .     S
Si299  O406    1.624   1_455 S
Si300  O395    1.627   .     S
Si300  O396    1.632   .     S
Si300  O404    1.627   .     S
Si300  O562    1.623   .     S
Si301  O407    1.623   .     S
Si301  O421    1.626   .     S
Si301  O422    1.624   .     S
Si301  O493    1.621   .     S
Si302  O407    1.620   .     S
Si302  O408    1.624   .     S
Si302  O412    1.623   .     S
Si302  O419    1.623   .     S
Si303  O403    1.621   .     S
Si303  O404    1.626   .     S
Si303  O408    1.622   1_554 S
Si303  O409    1.627   .     S
Si304  O400    1.624   .     S
Si304  O401    1.629   .     S
Si304  O409    1.620   .     S
Si304  O410    1.618   1_554 S
Si305  O410    1.629   .     S
Si305  O411    1.624   .     S
Si305  O420    1.625   .     S
Si305  O427    1.626   .     S
Si306  O411    1.624   .     S
Si306  O412    1.623   .     S
Si306  O424    1.624   .     S
Si306  O425    1.623   .     S
Si307  O413    1.623   .     S
Si307  O423    1.627   .     S
Si307  O494    1.630   .     S
Si307  O277    1.622   1_565 S
Si308  O413    1.618   .     S
Si308  O414    1.619   .     S
Si308  O418    1.628   .     S
Si308  O419    1.623   .     S
Si309  O402    1.619   .     S
Si309  O414    1.622   1_554 S
Si309  O415    1.632   .     S
Si309  O279    1.621   1_565 S
Si310  O399    1.623   .     S
Si310  O415    1.630   .     S
Si310  O416    1.621   1_554 S
Si310  O280    1.623   1_565 S
Si311  O416    1.624   .     S
Si311  O417    1.628   .     S
Si311  O420    1.624   .     S
Si311  O428    1.627   .     S
Si312  O417    1.629   .     S
Si312  O418    1.630   .     S
Si312  O426    1.626   .     S
Si312  O278    1.622   1_565 S
Si313  O429    1.620   .     S
Si313  O443    1.627   .     S
Si313  O444    1.628   .     S
Si313  O559    1.623   .     S
Si314  O429    1.622   .     S
Si314  O430    1.620   .     S
Si314  O434    1.620   .     S
Si314  O441    1.624   .     S
Si315  O430    1.623   .     S
Si315  O431    1.626   .     S
Si315  O469    1.627   .     S
Si315  O470    1.618   .     S
Si316  O431    1.619   .     S
Si316  O432    1.620   .     S
Si316  O466    1.625   .     S
Si316  O467    1.625   .     S
Si317  O432    1.625   .     S
Si317  O433    1.622   .     S
Si317  O442    1.626   .     S
Si317  O449    1.626   1_655 S
Si318  O433    1.622   .     S
Si318  O434    1.623   .     S
Si318  O446    1.622   .     S
Si318  O447    1.627   .     S
Si319  O435    1.623   .     S
Si319  O445    1.626   .     S
Si319  O560    1.633   .     S
Si319  O569    1.625   .     S
Si320  O435    1.622   .     S
Si320  O436    1.621   .     S
Si320  O440    1.628   .     S
Si320  O441    1.622   .     S
Si321  O436    1.626   .     S
Si321  O437    1.633   .     S
Si321  O468    1.625   .     S
Si321  O571    1.621   .     S
Si322  O437    1.631   .     S
Si322  O438    1.622   .     S
Si322  O465    1.621   .     S
Si322  O572    1.623   .     S
Si323  O438    1.623   .     S
Si323  O439    1.628   .     S
Si323  O442    1.622   .     S
Si323  O450    1.627   1_655 S
Si324  O439    1.629   .     S
Si324  O440    1.631   .     S
Si324  O448    1.625   .     S
Si324  O570    1.621   .     S
Si325  O451    1.621   .     S
Si325  O465    1.625   .     S
Si325  O466    1.626   .     S
Si325  O537    1.623   .     S
Si326  O451    1.621   .     S
Si326  O452    1.628   .     S
Si326  O456    1.622   .     S
Si326  O463    1.625   .     S
Si327  O447    1.626   .     S
Si327  O448    1.624   .     S
Si327  O452    1.625   1_556 S
Si327  O453    1.627   .     S
Si328  O444    1.625   .     S
Si328  O445    1.624   .     S
Si328  O453    1.622   .     S
Si328  O454    1.623   1_556 S
Si329  O454    1.629   .     S
Si329  O455    1.622   .     S
Si329  O464    1.626   .     S
Si329  O471    1.626   .     S
Si330  O455    1.624   .     S
Si330  O456    1.623   .     S
Si330  O468    1.627   .     S
Si330  O469    1.624   .     S
Si331  O457    1.619   .     S
Si331  O467    1.629   .     S
Si331  O538    1.634   .     S
Si331  O573    1.621   .     S
Si332  O457    1.619   .     S
Si332  O458    1.623   .     S
Si332  O462    1.622   .     S
Si332  O463    1.627   .     S
Si333  O446    1.621   .     S
Si333  O458    1.622   1_556 S
Si333  O459    1.634   .     S
Si333  O575    1.624   .     S
Si334  O443    1.622   .     S
Si334  O459    1.628   .     S
Si334  O460    1.622   1_556 S
Si334  O576    1.627   .     S
Si335  O460    1.627   .     S
Si335  O461    1.617   .     S
Si335  O464    1.622   .     S
Si335  O472    1.633   .     S
Si336  O461    1.640   .     S
Si336  O462    1.638   .     S
Si336  O470    1.633   .     S
Si336  O574    1.592   .     S
Si337  O427    1.625   .     S
Si337  O473    1.619   .     S
Si337  O487    1.629   .     S
Si337  O488    1.627   .     S
Si338  O473    1.627   .     S
Si338  O474    1.614   .     S
Si338  O478    1.621   .     S
Si338  O485    1.624   .     S
Si339  O474    1.633   .     S
Si339  O475    1.634   .     S
Si339  O513    1.637   .     S
Si339  O514    1.599   .     S
Si340  O475    1.616   .     S
Si340  O476    1.625   .     S
Si340  O510    1.626   .     S
Si340  O511    1.627   .     S
Si341  O476    1.625   .     S
Si341  O477    1.622   .     S
Si341  O486    1.627   .     S
Si341  O493    1.627   1_655 S
Si342  O477    1.622   .     S
Si342  O478    1.622   .     S
Si342  O490    1.625   .     S
Si342  O491    1.631   .     S
Si343  O428    1.632   .     S
Si343  O479    1.622   .     S
Si343  O489    1.630   .     S
Si343  O281    1.623   1_565 S
Si344  O479    1.622   .     S
Si344  O480    1.620   .     S
Si344  O484    1.629   .     S
Si344  O485    1.622   .     S
Si345  O480    1.626   .     S
Si345  O481    1.632   .     S
Si345  O512    1.622   .     S
Si345  O283    1.622   1_565 S
Si346  O481    1.631   .     S
Si346  O482    1.622   .     S
Si346  O509    1.621   .     S
Si346  O284    1.624   1_565 S
Si347  O482    1.623   .     S
Si347  O483    1.627   .     S
Si347  O486    1.623   .     S
Si347  O494    1.629   1_655 S
Si348  O483    1.628   .     S
Si348  O484    1.630   .     S
Si348  O492    1.624   .     S
Si348  O282    1.622   1_565 S
Si349  O405    1.625   .     S
Si349  O495    1.622   .     S
Si349  O509    1.626   .     S
Si349  O510    1.624   .     S
Si350  O495    1.624   .     S
Si350  O496    1.628   .     S
Si350  O500    1.624   .     S
Si350  O507    1.619   .     S
Si351  O491    1.629   .     S
Si351  O492    1.624   .     S
Si351  O496    1.621   1_556 S
Si351  O497    1.632   .     S
Si352  O488    1.627   .     S
Si352  O489    1.625   .     S
Si352  O497    1.622   .     S
Si352  O498    1.624   1_556 S
Si353  O499    1.630   .     S
Si353  O500    1.623   .     S
Si353  O512    1.627   .     S
Si353  O513    1.619   .     S
Si354  O406    1.635   .     S
Si354  O501    1.618   .     S
Si354  O511    1.630   .     S
Si354  O573    1.626   .     S
Si355  O501    1.632   .     S
Si355  O502    1.631   .     S
Si355  O506    1.607   .     S
Si355  O507    1.633   .     S
Si356  O490    1.624   .     S
Si356  O502    1.617   1_556 S
Si356  O503    1.638   .     S
Si356  O575    1.625   .     S
Si357  O487    1.622   .     S
Si357  O503    1.623   .     S
Si357  O504    1.635   1_556 S
Si357  O576    1.620   .     S
Si358  O471    1.622   .     S
Si358  O517    1.623   .     S
Si358  O531    1.624   .     S
Si358  O532    1.627   .     S
Si359  O517    1.621   .     S
Si359  O518    1.623   .     S
Si359  O522    1.621   .     S
Si359  O529    1.626   .     S
Si360  O518    1.623   .     S
Si360  O519    1.623   .     S
Si360  O557    1.623   .     S
Si360  O558    1.625   .     S
Si361  O519    1.622   .     S
Si361  O520    1.618   .     S
Si361  O554    1.621   .     S
Si361  O555    1.623   .     S
Si362  O520    1.626   .     S
Si362  O521    1.623   .     S
Si362  O530    1.627   .     S
Si362  O537    1.622   1_455 S
Si363  O521    1.621   .     S
Si363  O522    1.625   .     S
Si363  O534    1.623   .     S
Si363  O535    1.624   .     S
Si364  O472    1.626   .     S
Si364  O523    1.625   .     S
Si364  O533    1.624   .     S
Si364  O561    1.627   .     S
Si365  O523    1.623   .     S
Si365  O524    1.622   .     S
Si365  O528    1.625   .     S
Si365  O529    1.621   .     S
Si366  O524    1.625   .     S
Si366  O525    1.628   .     S
Si366  O556    1.620   .     S
Si366  O563    1.624   .     S
Si367  O525    1.633   .     S
Si367  O526    1.619   .     S
Si367  O553    1.621   .     S
Si367  O564    1.623   .     S
Si368  O526    1.624   .     S
Si368  O527    1.629   .     S
Si368  O530    1.623   .     S
Si368  O538    1.625   1_455 S
Si369  O527    1.627   .     S
Si369  O528    1.632   .     S
Si369  O536    1.626   .     S
Si369  O562    1.624   .     S
Si370  O449    1.621   .     S
Si370  O539    1.623   .     S
Si370  O553    1.627   .     S
Si370  O554    1.625   .     S
Si371  O539    1.621   .     S
Si371  O540    1.623   .     S
Si371  O544    1.622   .     S
Si371  O551    1.624   .     S
Si372  O535    1.622   .     S
Si372  O536    1.627   .     S
Si372  O540    1.622   1_554 S
Si372  O541    1.625   .     S
Si373  O532    1.623   .     S
Si373  O533    1.626   .     S
Si373  O541    1.621   .     S
Si373  O542    1.618   1_554 S
Si374  O542    1.626   .     S
Si374  O543    1.623   .     S
Si374  O552    1.626   .     S
Si374  O559    1.622   .     S
Si375  O543    1.621   .     S
Si375  O544    1.623   .     S
Si375  O556    1.625   .     S
Si375  O557    1.624   .     S
Si376  O450    1.628   .     S
Si376  O545    1.624   .     S
Si376  O555    1.626   .     S
Si376  O565    1.622   .     S
Si377  O545    1.619   .     S
Si377  O546    1.621   .     S
Si377  O550    1.629   .     S
Si377  O551    1.623   .     S
Si378  O534    1.621   .     S
Si378  O546    1.624   1_554 S
Si378  O547    1.631   .     S
Si378  O567    1.621   .     S
Si379  O531    1.621   .     S
Si379  O547    1.631   .     S
Si379  O548    1.620   1_554 S
Si379  O568    1.625   .     S
Si380  O548    1.624   .     S
Si380  O549    1.627   .     S
Si380  O552    1.623   .     S
Si380  O560    1.627   .     S
Si381  O549    1.628   .     S
Si381  O550    1.630   .     S
Si381  O558    1.626   .     S
Si381  O566    1.622   .     S
Si382  O498    1.625   .     S
Si382  O499    1.616   .     S
Si382  O508    1.640   .     S
Si382  O515    1.623   .     S
Si383  O504    1.607   .     S
Si383  O505    1.695   .     S
Si383  O508    1.605   .     S
Si383  O516    1.618   .     S
Al384  O505    1.905   .     S
Al384  O506    1.719   .     S
Al384  O514    1.718   .     S
Al384  O574    1.709   .     S
O405   Si293   1.621   1_655 S
O406   Si299   1.624   1_655 S
O408   Si303   1.622   1_556 S
O410   Si304   1.618   1_556 S
O414   Si309   1.622   1_556 S
O416   Si310   1.621   1_556 S
O449   Si317   1.626   1_455 S
O450   Si323   1.627   1_455 S
O452   Si327   1.625   1_554 S
O454   Si328   1.623   1_554 S
O458   Si333   1.622   1_554 S
O460   Si334   1.622   1_554 S
O493   Si341   1.627   1_455 S
O494   Si347   1.629   1_455 S
O496   Si351   1.621   1_554 S
O498   Si352   1.624   1_554 S
O502   Si356   1.617   1_554 S
O504   Si357   1.635   1_554 S
O505   H577    1.003   .     S
O537   Si362   1.622   1_655 S
O538   Si368   1.625   1_655 S
O540   Si372   1.622   1_556 S
O542   Si373   1.618   1_556 S
O546   Si378   1.624   1_556 S
O548   Si379   1.620   1_556 S
H578   C584    1.090   .     S
H579   C585    1.087   .     S
H580   C582    1.089   .     S
H581   C583    1.087   .     S
C582   C583    1.372   .     D
C582   C584    1.429   .     S
C583   S586    1.722   .     S
C584   C585    1.372   .     D
C585   S586    1.722   .     S
