data_T8-O1-saifen
_audit_creation_date              2021-11-23
_audit_creation_method            'Materials Studio'
_symmetry_space_group_name_H-M    'P1'
_symmetry_Int_Tables_number       1
_symmetry_cell_setting            triclinic
loop_
_symmetry_equiv_pos_as_xyz
  x,y,z
_cell_length_a                    20.3820
_cell_length_b                    40.3304
_cell_length_c                    13.5742
_cell_angle_alpha                 90
_cell_angle_beta                  90
_cell_angle_gamma                 90
loop_
_atom_site_label
_atom_site_type_symbol
_atom_site_fract_x
_atom_site_fract_y
_atom_site_fract_z
_atom_site_U_iso_or_equiv
_atom_site_adp_type
_atom_site_occupancy
Si1    Si    0.42777   0.42062   0.15197   0.01267  Uiso   1.00
Si2    Si    0.31296   0.40731   0.30373   0.01267  Uiso   1.00
Si3    Si    0.27946   0.42418   0.51780   0.01267  Uiso   1.00
Si4    Si    0.12375   0.42285   0.52061   0.01267  Uiso   1.00
Si5    Si    0.07252   0.40556   0.30658   0.01267  Uiso   1.00
Si6    Si    0.19071   0.42572   0.17467   0.01267  Uiso   1.00
Si7    Si    0.26784   0.30514   0.53843   0.01267  Uiso   1.00
Si8    Si    0.11687   0.30711   0.51589   0.01267  Uiso   1.00
Si9    Si    0.06638   0.32756   0.30130   0.01267  Uiso   1.00
Si10   Si    0.18438   0.30160   0.18595   0.01267  Uiso   1.00
Si11   Si    0.08319   0.36342   0.66695   0.01267  Uiso   1.00
Si12   Si    0.18721   0.37802   0.82302   0.01267  Uiso   1.00
Si13   Si    0.22049   0.36171   0.04434   0.01267  Uiso   1.00
Si14   Si    0.37784   0.36068   0.02115   0.01267  Uiso   1.00
Si15   Si    0.42210   0.37765   0.80625   0.01267  Uiso   1.00
Si16   Si    0.30433   0.36466   0.67183   0.01267  Uiso   1.00
Si17   Si    0.07530   0.47755   0.66281   0.01267  Uiso   1.00
Si18   Si    0.18862   0.45699   0.81243   0.01267  Uiso   1.00
Si19   Si    0.22639   0.48029   0.02197   0.01267  Uiso   1.00
Si20   Si    0.37922   0.47920   0.01999   0.01267  Uiso   1.00
Si21   Si    0.43113   0.45680   0.80996   0.01267  Uiso   1.00
Si22   Si    0.31165   0.47695   0.68000   0.01267  Uiso   1.00
Si23   Si    0.57636   0.17027   0.82731   0.01267  Uiso   1.00
Si24   Si    0.69245   0.15620   0.67885   0.01267  Uiso   1.00
Si25   Si    0.71878   0.17513   0.46075   0.01267  Uiso   1.00
Si26   Si    0.87669   0.17465   0.46406   0.01267  Uiso   1.00
Si27   Si    0.92617   0.15599   0.67553   0.01267  Uiso   1.00
Si28   Si    0.81457   0.16829   0.82403   0.01267  Uiso   1.00
Si29   Si    0.57601   0.05609   0.81569   0.01267  Uiso   1.00
Si30   Si    0.69143   0.07772   0.67015   0.01267  Uiso   1.00
Si31   Si    0.72993   0.05492   0.45788   0.01267  Uiso   1.00
Si32   Si    0.88338   0.05427   0.46635   0.01267  Uiso   1.00
Si33   Si    0.93133   0.07688   0.67692   0.01267  Uiso   1.00
Si34   Si    0.81198   0.05681   0.80720   0.01267  Uiso   1.00
Si35   Si    0.92443   0.11316   0.33317   0.01267  Uiso   1.00
Si36   Si    0.80851   0.12753   0.18417   0.01267  Uiso   1.00
Si37   Si    0.77953   0.10892   0.96664   0.01267  Uiso   1.00
Si38   Si    0.62104   0.10970   0.96634   0.01267  Uiso   1.00
Si39   Si    0.57147   0.12796   0.17979   0.01267  Uiso   1.00
Si40   Si    0.68446   0.11417   0.32561   0.01267  Uiso   1.00
Si41   Si    0.92313   0.22804   0.31380   0.01267  Uiso   1.00
Si42   Si    0.80712   0.20659   0.17015   0.01267  Uiso   1.00
Si43   Si    0.76926   0.22747   0.95465   0.01267  Uiso   1.00
Si44   Si    0.61574   0.22841   0.96193   0.01267  Uiso   1.00
Si45   Si    0.56713   0.20703   0.17538   0.01267  Uiso   1.00
Si46   Si    0.68548   0.22871   0.30387   0.01267  Uiso   1.00
Si47   Si    0.57018   0.36268   0.82993   0.01267  Uiso   1.00
Si48   Si    0.68510   0.37705   0.67918   0.01267  Uiso   1.00
Si49   Si    0.72216   0.36081   0.46490   0.01267  Uiso   1.00
Si50   Si    0.87737   0.36040   0.45698   0.01267  Uiso   1.00
Si51   Si    0.93217   0.37738   0.66600   0.01267  Uiso   1.00
Si52   Si    0.81537   0.36139   0.80507   0.01267  Uiso   1.00
Si53   Si    0.57814   0.47838   0.81096   0.01267  Uiso   1.00
Si54   Si    0.68757   0.45682   0.66244   0.01267  Uiso   1.00
Si55   Si    0.73041   0.47713   0.45039   0.01267  Uiso   1.00
Si56   Si    0.88385   0.47770   0.45948   0.01267  Uiso   1.00
Si57   Si    0.93127   0.45622   0.67221   0.01267  Uiso   1.00
Si58   Si    0.80950   0.47865   0.79516   0.01267  Uiso   1.00
Si59   Si    0.92298   0.42075   0.31413   0.01267  Uiso   1.00
Si60   Si    0.81334   0.40555   0.16527   0.01267  Uiso   1.00
Si61   Si    0.78158   0.42115   0.94305   0.01267  Uiso   1.00
Si62   Si    0.62598   0.42284   0.95438   0.01267  Uiso   1.00
Si63   Si    0.69265   0.41949   0.31225   0.01267  Uiso   1.00
Si64   Si    0.92026   0.30544   0.31040   0.01267  Uiso   1.00
Si65   Si    0.81108   0.32643   0.16227   0.01267  Uiso   1.00
Si66   Si    0.77057   0.30511   0.94701   0.01267  Uiso   1.00
Si67   Si    0.61798   0.30492   0.96226   0.01267  Uiso   1.00
Si68   Si    0.69159   0.30748   0.30467   0.01267  Uiso   1.00
Si69   Si    0.42341   0.11443   0.14973   0.01267  Uiso   1.00
Si70   Si    0.30697   0.12925   0.29942   0.01267  Uiso   1.00
Si71   Si    0.27980   0.10868   0.51568   0.01267  Uiso   1.00
Si72   Si    0.12247   0.10945   0.51388   0.01267  Uiso   1.00
Si73   Si    0.07239   0.12759   0.30415   0.01267  Uiso   1.00
Si74   Si    0.18491   0.11557   0.15533   0.01267  Uiso   1.00
Si75   Si    0.42098   0.22838   0.16208   0.01267  Uiso   1.00
Si76   Si    0.26818   0.22827   0.52187   0.01267  Uiso   1.00
Si77   Si    0.11491   0.22996   0.50687   0.01267  Uiso   1.00
Si78   Si    0.06817   0.20593   0.29860   0.01267  Uiso   1.00
Si79   Si    0.18575   0.22531   0.16451   0.01267  Uiso   1.00
Si80   Si    0.07328   0.17149   0.64011   0.01267  Uiso   1.00
Si81   Si    0.18858   0.15627   0.78727   0.01267  Uiso   1.00
Si82   Si    0.22011   0.17249   0.00631   0.01267  Uiso   1.00
Si83   Si    0.37801   0.17433   0.01021   0.01267  Uiso   1.00
Si84   Si    0.42894   0.15619   0.79941   0.01267  Uiso   1.00
Si85   Si    0.31580   0.16850   0.65194   0.01267  Uiso   1.00
Si86   Si    0.07667   0.05495   0.66455   0.01267  Uiso   1.00
Si87   Si    0.18882   0.07757   0.80743   0.01267  Uiso   1.00
Si88   Si    0.22888   0.05797   0.02365   0.01267  Uiso   1.00
Si89   Si    0.38138   0.05615   0.01524   0.01267  Uiso   1.00
Si90   Si    0.43006   0.07707   0.80230   0.01267  Uiso   1.00
Si91   Si    0.31044   0.05548   0.67455   0.01267  Uiso   1.00
Si92   Si    0.57844   0.40679   0.16791   0.01267  Uiso   1.00
Si93   Si    0.57299   0.32759   0.17417   0.01267  Uiso   1.00
Si94   Si    0.42550   0.30609   0.16793   0.01267  Uiso   1.00
Si95   Si    0.30618   0.20779   0.30799   0.01267  Uiso   1.00
Al96   Al    0.30493   0.32631   0.30985   0.01267  Uiso   1.00
O97    O     0.38246   0.41470   0.24812   0.01267  Uiso   1.00
O98    O     0.31934   0.42278   0.41488   0.01267  Uiso   1.00
O99    O     0.20114   0.42637   0.49534   0.01267  Uiso   1.00
O100   O     0.08235   0.41390   0.42272   0.01267  Uiso   1.00
O101   O     0.12361   0.42653   0.23969   0.01267  Uiso   1.00
O102   O     0.25484   0.42713   0.24519   0.01267  Uiso   1.00
O103   O     0.37591   0.31155   0.25767   0.01267  Uiso   1.00
O104   O     0.31841   0.31355   0.44195   0.01267  Uiso   1.00
O105   O     0.19539   0.31570   0.50257   0.01267  Uiso   1.00
O106   O     0.07972   0.31588   0.41444   0.01267  Uiso   1.00
O107   O     0.10834   0.30581   0.22341   0.01267  Uiso   1.00
O108   O     0.23379   0.30641   0.27682   0.01267  Uiso   1.00
O109   O     0.29706   0.36856   0.30909   0.01267  Uiso   1.00
O110   O     0.08574   0.36634   0.28863   0.01267  Uiso   1.00
O111   O     0.41404   0.45702   0.10444   0.01267  Uiso   1.00
O112   O     0.41582   0.39247   0.06774   0.01267  Uiso   1.00
O113   O     0.40431   0.32632   0.06853   0.01267  Uiso   1.00
O114   O     0.19005   0.45885   0.10654   0.01267  Uiso   1.00
O115   O     0.19072   0.39283   0.10547   0.01267  Uiso   1.00
O116   O     0.19884   0.32714   0.09513   0.01267  Uiso   1.00
O117   O     0.99772   0.41515   0.27645   0.01267  Uiso   1.00
O118   O     0.98885   0.32274   0.27806   0.01267  Uiso   1.00
O119   O     0.12638   0.35994   0.76702   0.01267  Uiso   1.00
O120   O     0.19216   0.36244   0.93243   0.01267  Uiso   1.00
O121   O     0.29997   0.36492   0.04152   0.01267  Uiso   1.00
O122   O     0.39293   0.35932   0.90346   0.01267  Uiso   1.00
O123   O     0.37971   0.36646   0.71010   0.01267  Uiso   1.00
O124   O     0.25534   0.37137   0.76335   0.01267  Uiso   1.00
O125   O     0.13129   0.47335   0.74628   0.01267  Uiso   1.00
O126   O     0.18826   0.47562   0.91795   0.01267  Uiso   1.00
O127   O     0.30246   0.46823   0.00916   0.01267  Uiso   1.00
O128   O     0.41580   0.47462   0.91456   0.01267  Uiso   1.00
O129   O     0.38546   0.47235   0.72333   0.01267  Uiso   1.00
O130   O     0.25963   0.46208   0.75967   0.01267  Uiso   1.00
O131   O     0.17478   0.41774   0.82822   0.01267  Uiso   1.00
O132   O     0.41698   0.41741   0.82083   0.01267  Uiso   1.00
O133   O     0.08696   0.32883   0.60559   0.01267  Uiso   1.00
O134   O     0.11380   0.39356   0.60173   0.01267  Uiso   1.00
O135   O     0.09608   0.45777   0.56321   0.01267  Uiso   1.00
O136   O     0.29308   0.32691   0.63042   0.01267  Uiso   1.00
O137   O     0.29303   0.39072   0.58267   0.01267  Uiso   1.00
O138   O     0.30406   0.45687   0.57715   0.01267  Uiso   1.00
O139   O     0.49702   0.36610   0.78359   0.01267  Uiso   1.00
O140   O     0.50734   0.46298   0.78009   0.01267  Uiso   1.00
O141   O     0.63174   0.17132   0.74156   0.01267  Uiso   1.00
O142   O     0.69778   0.17681   0.57613   0.01267  Uiso   1.00
O143   O     0.79787   0.17217   0.44921   0.01267  Uiso   1.00
O144   O     0.89544   0.17485   0.58002   0.01267  Uiso   1.00
O145   O     0.88672   0.16732   0.77370   0.01267  Uiso   1.00
O146   O     0.76007   0.16009   0.74037   0.01267  Uiso   1.00
O147   O     0.63120   0.06168   0.73136   0.01267  Uiso   1.00
O148   O     0.69367   0.05970   0.56356   0.01267  Uiso   1.00
O149   O     0.80670   0.06583   0.46820   0.01267  Uiso   1.00
O150   O     0.91309   0.05665   0.57706   0.01267  Uiso   1.00
O151   O     0.88615   0.06355   0.76750   0.01267  Uiso   1.00
O152   O     0.76053   0.07209   0.72747   0.01267  Uiso   1.00
O153   O     0.67959   0.11724   0.65552   0.01267  Uiso   1.00
O154   O     0.91906   0.11621   0.65854   0.01267  Uiso   1.00
O155   O     0.57542   0.20588   0.88348   0.01267  Uiso   1.00
O156   O     0.59048   0.14115   0.90726   0.01267  Uiso   1.00
O157   O     0.59657   0.07531   0.91636   0.01267  Uiso   1.00
O158   O     0.80335   0.20499   0.86997   0.01267  Uiso   1.00
O159   O     0.81154   0.14087   0.91164   0.01267  Uiso   1.00
O160   O     0.80222   0.07470   0.91350   0.01267  Uiso   1.00
O161   O     0.00229   0.16649   0.69215   0.01267  Uiso   1.00
O162   O     0.00779   0.07033   0.70483   0.01267  Uiso   1.00
O163   O     0.86963   0.11275   0.24665   0.01267  Uiso   1.00
O164   O     0.80483   0.10793   0.07988   0.01267  Uiso   1.00
O165   O     0.70024   0.11231   0.96241   0.01267  Uiso   1.00
O166   O     0.59572   0.10986   0.07926   0.01267  Uiso   1.00
O167   O     0.61311   0.11405   0.27279   0.01267  Uiso   1.00
O168   O     0.74048   0.12201   0.24385   0.01267  Uiso   1.00
O169   O     0.86653   0.22373   0.23077   0.01267  Uiso   1.00
O170   O     0.80588   0.22213   0.05985   0.01267  Uiso   1.00
O171   O     0.69231   0.21669   0.96538   0.01267  Uiso   1.00
O172   O     0.58420   0.22471   0.07097   0.01267  Uiso   1.00
O173   O     0.61105   0.22381   0.26246   0.01267  Uiso   1.00
O174   O     0.73702   0.21388   0.22358   0.01267  Uiso   1.00
O175   O     0.81924   0.16689   0.16445   0.01267  Uiso   1.00
O176   O     0.58316   0.16768   0.16827   0.01267  Uiso   1.00
O177   O     0.92401   0.07805   0.39184   0.01267  Uiso   1.00
O178   O     0.91089   0.14304   0.41088   0.01267  Uiso   1.00
O179   O     0.90311   0.20891   0.41512   0.01267  Uiso   1.00
O180   O     0.69550   0.07786   0.37454   0.01267  Uiso   1.00
O181   O     0.68540   0.14266   0.41056   0.01267  Uiso   1.00
O182   O     0.69307   0.20908   0.40822   0.01267  Uiso   1.00
O183   O     0.49480   0.11947   0.20046   0.01267  Uiso   1.00
O184   O     0.49004   0.21253   0.20063   0.01267  Uiso   1.00
O185   O     0.62400   0.36197   0.74175   0.01267  Uiso   1.00
O186   O     0.68324   0.36092   0.56944   0.01267  Uiso   1.00
O187   O     0.80047   0.36425   0.48603   0.01267  Uiso   1.00
O188   O     0.92170   0.36239   0.55594   0.01267  Uiso   1.00
O189   O     0.88365   0.35915   0.74381   0.01267  Uiso   1.00
O190   O     0.75435   0.36756   0.73062   0.01267  Uiso   1.00
O191   O     0.62705   0.47555   0.71668   0.01267  Uiso   1.00
O192   O     0.68729   0.46768   0.54731   0.01267  Uiso   1.00
O193   O     0.80687   0.46724   0.47085   0.01267  Uiso   1.00
O194   O     0.92033   0.47267   0.56439   0.01267  Uiso   1.00
O195   O     0.88336   0.47325   0.75316   0.01267  Uiso   1.00
O196   O     0.75731   0.46758   0.71082   0.01267  Uiso   1.00
O197   O     0.67777   0.41708   0.67317   0.01267  Uiso   1.00
O198   O     0.91591   0.41680   0.66603   0.01267  Uiso   1.00
O199   O     0.57296   0.32819   0.89207   0.01267  Uiso   1.00
O200   O     0.58214   0.39384   0.90382   0.01267  Uiso   1.00
O201   O     0.60841   0.45847   0.90501   0.01267  Uiso   1.00
O202   O     0.80697   0.32605   0.86112   0.01267  Uiso   1.00
O203   O     0.81959   0.39173   0.88416   0.01267  Uiso   1.00
O204   O     0.79855   0.45705   0.89489   0.01267  Uiso   1.00
O205   O     0.00777   0.37088   0.69797   0.01267  Uiso   1.00
O206   O     0.00669   0.46267   0.70609   0.01267  Uiso   1.00
O207   O     0.87543   0.42336   0.21830   0.01267  Uiso   1.00
O208   O     0.80580   0.42163   0.05652   0.01267  Uiso   1.00
O209   O     0.70298   0.41411   0.93656   0.01267  Uiso   1.00
O210   O     0.60977   0.42474   0.07111   0.01267  Uiso   1.00
O211   O     0.61997   0.41742   0.26463   0.01267  Uiso   1.00
O212   O     0.74654   0.41182   0.22735   0.01267  Uiso   1.00
O213   O     0.87037   0.30719   0.21740   0.01267  Uiso   1.00
O214   O     0.80621   0.31170   0.05181   0.01267  Uiso   1.00
O215   O     0.69412   0.31692   0.95295   0.01267  Uiso   1.00
O216   O     0.59516   0.30710   0.07656   0.01267  Uiso   1.00
O217   O     0.61768   0.31623   0.26782   0.01267  Uiso   1.00
O218   O     0.74230   0.32012   0.22004   0.01267  Uiso   1.00
O219   O     0.82638   0.36587   0.15793   0.01267  Uiso   1.00
O220   O     0.58200   0.36686   0.15186   0.01267  Uiso   1.00
O221   O     0.91910   0.45514   0.37613   0.01267  Uiso   1.00
O222   O     0.89882   0.38988   0.38228   0.01267  Uiso   1.00
O223   O     0.88886   0.32458   0.40503   0.01267  Uiso   1.00
O224   O     0.70338   0.45657   0.35613   0.01267  Uiso   1.00
O225   O     0.69822   0.39237   0.40018   0.01267  Uiso   1.00
O226   O     0.70645   0.32619   0.40826   0.01267  Uiso   1.00
O227   O     0.50391   0.41898   0.18615   0.01267  Uiso   1.00
O228   O     0.49807   0.31880   0.20307   0.01267  Uiso   1.00
O229   O     0.36816   0.11511   0.23574   0.01267  Uiso   1.00
O230   O     0.30189   0.10767   0.40061   0.01267  Uiso   1.00
O231   O     0.20110   0.11478   0.52438   0.01267  Uiso   1.00
O232   O     0.10138   0.10746   0.39874   0.01267  Uiso   1.00
O233   O     0.11291   0.11744   0.20585   0.01267  Uiso   1.00
O234   O     0.23953   0.12562   0.23708   0.01267  Uiso   1.00
O235   O     0.36769   0.22381   0.24980   0.01267  Uiso   1.00
O236   O     0.30262   0.22637   0.41427   0.01267  Uiso   1.00
O237   O     0.19128   0.21791   0.51284   0.01267  Uiso   1.00
O238   O     0.08924   0.22810   0.39380   0.01267  Uiso   1.00
O239   O     0.11255   0.21585   0.20386   0.01267  Uiso   1.00
O240   O     0.23820   0.21333   0.24806   0.01267  Uiso   1.00
O241   O     0.31788   0.16827   0.32552   0.01267  Uiso   1.00
O242   O     0.07905   0.16710   0.32653   0.01267  Uiso   1.00
O243   O     0.42180   0.07892   0.09300   0.01267  Uiso   1.00
O244   O     0.41179   0.14393   0.06996   0.01267  Uiso   1.00
O245   O     0.39557   0.20928   0.06338   0.01267  Uiso   1.00
O246   O     0.19679   0.07819   0.11508   0.01267  Uiso   1.00
O247   O     0.18773   0.14083   0.06213   0.01267  Uiso   1.00
O248   O     0.19969   0.20657   0.06097   0.01267  Uiso   1.00
O249   O     0.99629   0.11792   0.28390   0.01267  Uiso   1.00
O250   O     0.99172   0.21302   0.27120   0.01267  Uiso   1.00
O251   O     0.13001   0.17337   0.72400   0.01267  Uiso   1.00
O252   O     0.19242   0.17400   0.89434   0.01267  Uiso   1.00
O253   O     0.29943   0.16833   0.00685   0.01267  Uiso   1.00
O254   O     0.40721   0.17558   0.89917   0.01267  Uiso   1.00
O255   O     0.38633   0.16974   0.70689   0.01267  Uiso   1.00
O256   O     0.25841   0.16120   0.73183   0.01267  Uiso   1.00
O257   O     0.13090   0.05736   0.75185   0.01267  Uiso   1.00
O258   O     0.19004   0.06598   0.92181   0.01267  Uiso   1.00
O259   O     0.30550   0.06891   0.01015   0.01267  Uiso   1.00
O260   O     0.41344   0.05865   0.90589   0.01267  Uiso   1.00
O261   O     0.38467   0.06225   0.71410   0.01267  Uiso   1.00
O262   O     0.25952   0.06991   0.75655   0.01267  Uiso   1.00
O263   O     0.17338   0.11697   0.79961   0.01267  Uiso   1.00
O264   O     0.41695   0.11662   0.81432   0.01267  Uiso   1.00
O265   O     0.07169   0.20613   0.57822   0.01267  Uiso   1.00
O266   O     0.08562   0.14069   0.56515   0.01267  Uiso   1.00
O267   O     0.10105   0.07501   0.56698   0.01267  Uiso   1.00
O268   O     0.30466   0.20426   0.59967   0.01267  Uiso   1.00
O269   O     0.31726   0.13933   0.56944   0.01267  Uiso   1.00
O270   O     0.29940   0.07379   0.56865   0.01267  Uiso   1.00
O271   O     0.50562   0.16399   0.77575   0.01267  Uiso   1.00
O272   O     0.50642   0.07019   0.77408   0.01267  Uiso   1.00
O273   O     0.43043   0.26716   0.13569   0.01267  Uiso   1.00
O274   O     0.19133   0.26437   0.14067   0.01267  Uiso   1.00
O275   O     0.27479   0.26621   0.56361   0.01267  Uiso   1.00
O276   O     0.10833   0.26817   0.54396   0.01267  Uiso   1.00
O277   O     0.06697   0.01638   0.63420   0.01267  Uiso   1.00
O278   O     0.29812   0.01604   0.65932   0.01267  Uiso   1.00
O279   O     0.22338   0.01910   0.05204   0.01267  Uiso   1.00
O280   O     0.38466   0.01791   0.05236   0.01267  Uiso   1.00
O281   O     0.57021   0.01699   0.84204   0.01267  Uiso   1.00
O282   O     0.79906   0.01746   0.82217   0.01267  Uiso   1.00
O283   O     0.72395   0.01636   0.42484   0.01267  Uiso   1.00
O284   O     0.88999   0.01639   0.42706   0.01267  Uiso   1.00
O285   O     0.93183   0.26698   0.34066   0.01267  Uiso   1.00
O286   O     0.69930   0.26783   0.32292   0.01267  Uiso   1.00
O287   O     0.77509   0.26593   0.92055   0.01267  Uiso   1.00
O288   O     0.61010   0.26673   0.92590   0.01267  Uiso   1.00
Si289  Si    0.42777   0.92062   0.15197   0.01267  Uiso   1.00
Si290  Si    0.31296   0.90731   0.30373   0.01267  Uiso   1.00
Si291  Si    0.27946   0.92418   0.51780   0.01267  Uiso   1.00
Si292  Si    0.12375   0.92285   0.52061   0.01267  Uiso   1.00
Si293  Si    0.07252   0.90556   0.30658   0.01267  Uiso   1.00
Si294  Si    0.19071   0.92572   0.17467   0.01267  Uiso   1.00
Si295  Si    0.26784   0.80514   0.53843   0.01267  Uiso   1.00
Si296  Si    0.11687   0.80711   0.51589   0.01267  Uiso   1.00
Si297  Si    0.06638   0.82756   0.30130   0.01267  Uiso   1.00
Si298  Si    0.18438   0.80160   0.18595   0.01267  Uiso   1.00
Si299  Si    0.08319   0.86342   0.66695   0.01267  Uiso   1.00
Si300  Si    0.18721   0.87802   0.82302   0.01267  Uiso   1.00
Si301  Si    0.22049   0.86171   0.04434   0.01267  Uiso   1.00
Si302  Si    0.37784   0.86068   0.02115   0.01267  Uiso   1.00
Si303  Si    0.42210   0.87765   0.80625   0.01267  Uiso   1.00
Si304  Si    0.30433   0.86466   0.67183   0.01267  Uiso   1.00
Si305  Si    0.07530   0.97755   0.66281   0.01267  Uiso   1.00
Si306  Si    0.18862   0.95699   0.81243   0.01267  Uiso   1.00
Si307  Si    0.22639   0.98029   0.02197   0.01267  Uiso   1.00
Si308  Si    0.37922   0.97920   0.01999   0.01267  Uiso   1.00
Si309  Si    0.43113   0.95680   0.80996   0.01267  Uiso   1.00
Si310  Si    0.31165   0.97695   0.68000   0.01267  Uiso   1.00
Si311  Si    0.57636   0.67027   0.82731   0.01267  Uiso   1.00
Si312  Si    0.69245   0.65620   0.67885   0.01267  Uiso   1.00
Si313  Si    0.71878   0.67513   0.46075   0.01267  Uiso   1.00
Si314  Si    0.87669   0.67465   0.46406   0.01267  Uiso   1.00
Si315  Si    0.92617   0.65599   0.67553   0.01267  Uiso   1.00
Si316  Si    0.81457   0.66829   0.82403   0.01267  Uiso   1.00
Si317  Si    0.57601   0.55609   0.81569   0.01267  Uiso   1.00
Si318  Si    0.69143   0.57772   0.67015   0.01267  Uiso   1.00
Si319  Si    0.72993   0.55492   0.45788   0.01267  Uiso   1.00
Si320  Si    0.88338   0.55427   0.46635   0.01267  Uiso   1.00
Si321  Si    0.93133   0.57688   0.67692   0.01267  Uiso   1.00
Si322  Si    0.81198   0.55681   0.80720   0.01267  Uiso   1.00
Si323  Si    0.92443   0.61316   0.33317   0.01267  Uiso   1.00
Si324  Si    0.80851   0.62753   0.18417   0.01267  Uiso   1.00
Si325  Si    0.77953   0.60892   0.96664   0.01267  Uiso   1.00
Si326  Si    0.62104   0.60970   0.96634   0.01267  Uiso   1.00
Si327  Si    0.57147   0.62796   0.17979   0.01267  Uiso   1.00
Si328  Si    0.68446   0.61417   0.32561   0.01267  Uiso   1.00
Si329  Si    0.92313   0.72804   0.31380   0.01267  Uiso   1.00
Si330  Si    0.80712   0.70659   0.17015   0.01267  Uiso   1.00
Si331  Si    0.76926   0.72747   0.95465   0.01267  Uiso   1.00
Si332  Si    0.61574   0.72841   0.96193   0.01267  Uiso   1.00
Si333  Si    0.56713   0.70703   0.17538   0.01267  Uiso   1.00
Si334  Si    0.68548   0.72871   0.30387   0.01267  Uiso   1.00
Si335  Si    0.57018   0.86268   0.82993   0.01267  Uiso   1.00
Si336  Si    0.68510   0.87705   0.67918   0.01267  Uiso   1.00
Si337  Si    0.72216   0.86081   0.46490   0.01267  Uiso   1.00
Si338  Si    0.87737   0.86040   0.45698   0.01267  Uiso   1.00
Si339  Si    0.93217   0.87738   0.66600   0.01267  Uiso   1.00
Si340  Si    0.81537   0.86139   0.80507   0.01267  Uiso   1.00
Si341  Si    0.57814   0.97838   0.81096   0.01267  Uiso   1.00
Si342  Si    0.68757   0.95682   0.66244   0.01267  Uiso   1.00
Si343  Si    0.73041   0.97713   0.45039   0.01267  Uiso   1.00
Si344  Si    0.88385   0.97770   0.45948   0.01267  Uiso   1.00
Si345  Si    0.93127   0.95622   0.67221   0.01267  Uiso   1.00
Si346  Si    0.80950   0.97865   0.79516   0.01267  Uiso   1.00
Si347  Si    0.92298   0.92075   0.31413   0.01267  Uiso   1.00
Si348  Si    0.81334   0.90555   0.16527   0.01267  Uiso   1.00
Si349  Si    0.78158   0.92115   0.94305   0.01267  Uiso   1.00
Si350  Si    0.62598   0.92284   0.95438   0.01267  Uiso   1.00
Si351  Si    0.69265   0.91949   0.31225   0.01267  Uiso   1.00
Si352  Si    0.92026   0.80544   0.31040   0.01267  Uiso   1.00
Si353  Si    0.81108   0.82643   0.16227   0.01267  Uiso   1.00
Si354  Si    0.77057   0.80511   0.94701   0.01267  Uiso   1.00
Si355  Si    0.61798   0.80492   0.96226   0.01267  Uiso   1.00
Si356  Si    0.69159   0.80748   0.30467   0.01267  Uiso   1.00
Si357  Si    0.42341   0.61443   0.14973   0.01267  Uiso   1.00
Si358  Si    0.30697   0.62925   0.29942   0.01267  Uiso   1.00
Si359  Si    0.27980   0.60868   0.51568   0.01267  Uiso   1.00
Si360  Si    0.12247   0.60945   0.51388   0.01267  Uiso   1.00
Si361  Si    0.07239   0.62759   0.30415   0.01267  Uiso   1.00
Si362  Si    0.18491   0.61557   0.15533   0.01267  Uiso   1.00
Si363  Si    0.42098   0.72838   0.16208   0.01267  Uiso   1.00
Si364  Si    0.26818   0.72827   0.52187   0.01267  Uiso   1.00
Si365  Si    0.11491   0.72996   0.50687   0.01267  Uiso   1.00
Si366  Si    0.06817   0.70593   0.29860   0.01267  Uiso   1.00
Si367  Si    0.18575   0.72531   0.16451   0.01267  Uiso   1.00
Si368  Si    0.07328   0.67149   0.64011   0.01267  Uiso   1.00
Si369  Si    0.18858   0.65627   0.78727   0.01267  Uiso   1.00
Si370  Si    0.22011   0.67249   0.00631   0.01267  Uiso   1.00
Si371  Si    0.37801   0.67433   0.01021   0.01267  Uiso   1.00
Si372  Si    0.42894   0.65619   0.79941   0.01267  Uiso   1.00
Si373  Si    0.31580   0.66850   0.65194   0.01267  Uiso   1.00
Si374  Si    0.07667   0.55495   0.66455   0.01267  Uiso   1.00
Si375  Si    0.18882   0.57757   0.80743   0.01267  Uiso   1.00
Si376  Si    0.22888   0.55797   0.02365   0.01267  Uiso   1.00
Si377  Si    0.38138   0.55615   0.01524   0.01267  Uiso   1.00
Si378  Si    0.43006   0.57707   0.80230   0.01267  Uiso   1.00
Si379  Si    0.31044   0.55548   0.67455   0.01267  Uiso   1.00
Si380  Si    0.57844   0.90679   0.16791   0.01267  Uiso   1.00
Si381  Si    0.57299   0.82759   0.17417   0.01267  Uiso   1.00
Si382  Si    0.42550   0.80609   0.16793   0.01267  Uiso   1.00
Si383  Si    0.30618   0.70779   0.30799   0.01267  Uiso   1.00
Al384  Al    0.30493   0.82631   0.30985   0.01267  Uiso   1.00
O385   O     0.38246   0.91470   0.24812   0.01267  Uiso   1.00
O386   O     0.31934   0.92278   0.41488   0.01267  Uiso   1.00
O387   O     0.20114   0.92637   0.49534   0.01267  Uiso   1.00
O388   O     0.08235   0.91390   0.42272   0.01267  Uiso   1.00
O389   O     0.12361   0.92653   0.23969   0.01267  Uiso   1.00
O390   O     0.25484   0.92713   0.24519   0.01267  Uiso   1.00
O391   O     0.37591   0.81155   0.25767   0.01267  Uiso   1.00
O392   O     0.31841   0.81355   0.44195   0.01267  Uiso   1.00
O393   O     0.19539   0.81570   0.50257   0.01267  Uiso   1.00
O394   O     0.07972   0.81588   0.41444   0.01267  Uiso   1.00
O395   O     0.10834   0.80581   0.22341   0.01267  Uiso   1.00
O396   O     0.23379   0.80641   0.27682   0.01267  Uiso   1.00
O397   O     0.29706   0.86856   0.30909   0.01267  Uiso   1.00
O398   O     0.08574   0.86634   0.28863   0.01267  Uiso   1.00
O399   O     0.41404   0.95702   0.10444   0.01267  Uiso   1.00
O400   O     0.41582   0.89247   0.06774   0.01267  Uiso   1.00
O401   O     0.40431   0.82632   0.06853   0.01267  Uiso   1.00
O402   O     0.19005   0.95885   0.10654   0.01267  Uiso   1.00
O403   O     0.19072   0.89283   0.10547   0.01267  Uiso   1.00
O404   O     0.19884   0.82714   0.09513   0.01267  Uiso   1.00
O405   O     0.99772   0.91515   0.27645   0.01267  Uiso   1.00
O406   O     0.98885   0.82274   0.27806   0.01267  Uiso   1.00
O407   O     0.12638   0.85994   0.76702   0.01267  Uiso   1.00
O408   O     0.19216   0.86244   0.93243   0.01267  Uiso   1.00
O409   O     0.29997   0.86492   0.04152   0.01267  Uiso   1.00
O410   O     0.39293   0.85932   0.90346   0.01267  Uiso   1.00
O411   O     0.37971   0.86646   0.71010   0.01267  Uiso   1.00
O412   O     0.25534   0.87137   0.76335   0.01267  Uiso   1.00
O413   O     0.13129   0.97335   0.74628   0.01267  Uiso   1.00
O414   O     0.18826   0.97562   0.91795   0.01267  Uiso   1.00
O415   O     0.30246   0.96823   0.00916   0.01267  Uiso   1.00
O416   O     0.41580   0.97462   0.91456   0.01267  Uiso   1.00
O417   O     0.38546   0.97235   0.72333   0.01267  Uiso   1.00
O418   O     0.25963   0.96208   0.75967   0.01267  Uiso   1.00
O419   O     0.17478   0.91774   0.82822   0.01267  Uiso   1.00
O420   O     0.41698   0.91741   0.82083   0.01267  Uiso   1.00
O421   O     0.08696   0.82883   0.60559   0.01267  Uiso   1.00
O422   O     0.11380   0.89356   0.60173   0.01267  Uiso   1.00
O423   O     0.09608   0.95777   0.56321   0.01267  Uiso   1.00
O424   O     0.29308   0.82691   0.63042   0.01267  Uiso   1.00
O425   O     0.29303   0.89072   0.58267   0.01267  Uiso   1.00
O426   O     0.30406   0.95687   0.57715   0.01267  Uiso   1.00
O427   O     0.49702   0.86610   0.78359   0.01267  Uiso   1.00
O428   O     0.50734   0.96298   0.78009   0.01267  Uiso   1.00
O429   O     0.63174   0.67132   0.74156   0.01267  Uiso   1.00
O430   O     0.69778   0.67681   0.57613   0.01267  Uiso   1.00
O431   O     0.79787   0.67217   0.44921   0.01267  Uiso   1.00
O432   O     0.89544   0.67485   0.58002   0.01267  Uiso   1.00
O433   O     0.88672   0.66732   0.77370   0.01267  Uiso   1.00
O434   O     0.76007   0.66009   0.74037   0.01267  Uiso   1.00
O435   O     0.63120   0.56168   0.73136   0.01267  Uiso   1.00
O436   O     0.69367   0.55970   0.56356   0.01267  Uiso   1.00
O437   O     0.80670   0.56583   0.46820   0.01267  Uiso   1.00
O438   O     0.91309   0.55665   0.57706   0.01267  Uiso   1.00
O439   O     0.88615   0.56355   0.76750   0.01267  Uiso   1.00
O440   O     0.76053   0.57209   0.72747   0.01267  Uiso   1.00
O441   O     0.67959   0.61724   0.65552   0.01267  Uiso   1.00
O442   O     0.91906   0.61621   0.65854   0.01267  Uiso   1.00
O443   O     0.57542   0.70588   0.88348   0.01267  Uiso   1.00
O444   O     0.59048   0.64115   0.90726   0.01267  Uiso   1.00
O445   O     0.59657   0.57531   0.91636   0.01267  Uiso   1.00
O446   O     0.80335   0.70499   0.86997   0.01267  Uiso   1.00
O447   O     0.81154   0.64087   0.91164   0.01267  Uiso   1.00
O448   O     0.80222   0.57470   0.91350   0.01267  Uiso   1.00
O449   O     0.00229   0.66649   0.69215   0.01267  Uiso   1.00
O450   O     0.00779   0.57033   0.70483   0.01267  Uiso   1.00
O451   O     0.86963   0.61275   0.24665   0.01267  Uiso   1.00
O452   O     0.80483   0.60793   0.07988   0.01267  Uiso   1.00
O453   O     0.70024   0.61231   0.96241   0.01267  Uiso   1.00
O454   O     0.59572   0.60986   0.07926   0.01267  Uiso   1.00
O455   O     0.61311   0.61405   0.27279   0.01267  Uiso   1.00
O456   O     0.74048   0.62201   0.24385   0.01267  Uiso   1.00
O457   O     0.86653   0.72373   0.23077   0.01267  Uiso   1.00
O458   O     0.80588   0.72213   0.05985   0.01267  Uiso   1.00
O459   O     0.69231   0.71669   0.96538   0.01267  Uiso   1.00
O460   O     0.58420   0.72471   0.07097   0.01267  Uiso   1.00
O461   O     0.61105   0.72381   0.26246   0.01267  Uiso   1.00
O462   O     0.73702   0.71388   0.22358   0.01267  Uiso   1.00
O463   O     0.81924   0.66689   0.16445   0.01267  Uiso   1.00
O464   O     0.58316   0.66768   0.16827   0.01267  Uiso   1.00
O465   O     0.92401   0.57805   0.39184   0.01267  Uiso   1.00
O466   O     0.91089   0.64304   0.41088   0.01267  Uiso   1.00
O467   O     0.90311   0.70891   0.41512   0.01267  Uiso   1.00
O468   O     0.69550   0.57786   0.37454   0.01267  Uiso   1.00
O469   O     0.68540   0.64266   0.41056   0.01267  Uiso   1.00
O470   O     0.69307   0.70908   0.40822   0.01267  Uiso   1.00
O471   O     0.49480   0.61947   0.20046   0.01267  Uiso   1.00
O472   O     0.49004   0.71253   0.20063   0.01267  Uiso   1.00
O473   O     0.62400   0.86197   0.74175   0.01267  Uiso   1.00
O474   O     0.68324   0.86092   0.56944   0.01267  Uiso   1.00
O475   O     0.80047   0.86425   0.48603   0.01267  Uiso   1.00
O476   O     0.92170   0.86239   0.55594   0.01267  Uiso   1.00
O477   O     0.88365   0.85915   0.74381   0.01267  Uiso   1.00
O478   O     0.75435   0.86756   0.73062   0.01267  Uiso   1.00
O479   O     0.62705   0.97555   0.71668   0.01267  Uiso   1.00
O480   O     0.68729   0.96768   0.54731   0.01267  Uiso   1.00
O481   O     0.80687   0.96724   0.47085   0.01267  Uiso   1.00
O482   O     0.92033   0.97267   0.56439   0.01267  Uiso   1.00
O483   O     0.88336   0.97325   0.75316   0.01267  Uiso   1.00
O484   O     0.75731   0.96758   0.71082   0.01267  Uiso   1.00
O485   O     0.67777   0.91708   0.67317   0.01267  Uiso   1.00
O486   O     0.91591   0.91680   0.66603   0.01267  Uiso   1.00
O487   O     0.57296   0.82819   0.89207   0.01267  Uiso   1.00
O488   O     0.58214   0.89384   0.90382   0.01267  Uiso   1.00
O489   O     0.60841   0.95847   0.90501   0.01267  Uiso   1.00
O490   O     0.80697   0.82605   0.86112   0.01267  Uiso   1.00
O491   O     0.81959   0.89173   0.88416   0.01267  Uiso   1.00
O492   O     0.79855   0.95705   0.89489   0.01267  Uiso   1.00
O493   O     0.00777   0.87088   0.69797   0.01267  Uiso   1.00
O494   O     0.00669   0.96267   0.70609   0.01267  Uiso   1.00
O495   O     0.87543   0.92336   0.21830   0.01267  Uiso   1.00
O496   O     0.80580   0.92163   0.05652   0.01267  Uiso   1.00
O497   O     0.70298   0.91411   0.93656   0.01267  Uiso   1.00
O498   O     0.60977   0.92474   0.07111   0.01267  Uiso   1.00
O499   O     0.61997   0.91742   0.26463   0.01267  Uiso   1.00
O500   O     0.74654   0.91182   0.22735   0.01267  Uiso   1.00
O501   O     0.87037   0.80719   0.21740   0.01267  Uiso   1.00
O502   O     0.80621   0.81171   0.05181   0.01267  Uiso   1.00
O503   O     0.69412   0.81692   0.95295   0.01267  Uiso   1.00
O504   O     0.59516   0.80710   0.07656   0.01267  Uiso   1.00
O505   O     0.61768   0.81623   0.26782   0.01267  Uiso   1.00
O506   O     0.74230   0.82012   0.22004   0.01267  Uiso   1.00
O507   O     0.82638   0.86587   0.15793   0.01267  Uiso   1.00
O508   O     0.58200   0.86686   0.15186   0.01267  Uiso   1.00
O509   O     0.91910   0.95514   0.37613   0.01267  Uiso   1.00
O510   O     0.89882   0.88988   0.38228   0.01267  Uiso   1.00
O511   O     0.88886   0.82458   0.40503   0.01267  Uiso   1.00
O512   O     0.70338   0.95657   0.35613   0.01267  Uiso   1.00
O513   O     0.69822   0.89237   0.40018   0.01267  Uiso   1.00
O514   O     0.70645   0.82619   0.40826   0.01267  Uiso   1.00
O515   O     0.50391   0.91898   0.18615   0.01267  Uiso   1.00
O516   O     0.49807   0.81880   0.20307   0.01267  Uiso   1.00
O517   O     0.36816   0.61511   0.23574   0.01267  Uiso   1.00
O518   O     0.30189   0.60767   0.40061   0.01267  Uiso   1.00
O519   O     0.20110   0.61478   0.52438   0.01267  Uiso   1.00
O520   O     0.10138   0.60746   0.39874   0.01267  Uiso   1.00
O521   O     0.11291   0.61744   0.20585   0.01267  Uiso   1.00
O522   O     0.23953   0.62562   0.23708   0.01267  Uiso   1.00
O523   O     0.36769   0.72381   0.24980   0.01267  Uiso   1.00
O524   O     0.30262   0.72637   0.41427   0.01267  Uiso   1.00
O525   O     0.19128   0.71791   0.51284   0.01267  Uiso   1.00
O526   O     0.08924   0.72810   0.39380   0.01267  Uiso   1.00
O527   O     0.11255   0.71586   0.20386   0.01267  Uiso   1.00
O528   O     0.23820   0.71333   0.24806   0.01267  Uiso   1.00
O529   O     0.31788   0.66827   0.32552   0.01267  Uiso   1.00
O530   O     0.07905   0.66710   0.32653   0.01267  Uiso   1.00
O531   O     0.42180   0.57892   0.09300   0.01267  Uiso   1.00
O532   O     0.41179   0.64392   0.06996   0.01267  Uiso   1.00
O533   O     0.39557   0.70928   0.06338   0.01267  Uiso   1.00
O534   O     0.19679   0.57819   0.11508   0.01267  Uiso   1.00
O535   O     0.18773   0.64083   0.06213   0.01267  Uiso   1.00
O536   O     0.19969   0.70657   0.06097   0.01267  Uiso   1.00
O537   O     0.99629   0.61792   0.28390   0.01267  Uiso   1.00
O538   O     0.99172   0.71302   0.27120   0.01267  Uiso   1.00
O539   O     0.13001   0.67337   0.72400   0.01267  Uiso   1.00
O540   O     0.19242   0.67400   0.89434   0.01267  Uiso   1.00
O541   O     0.29943   0.66833   0.00685   0.01267  Uiso   1.00
O542   O     0.40721   0.67558   0.89917   0.01267  Uiso   1.00
O543   O     0.38633   0.66974   0.70689   0.01267  Uiso   1.00
O544   O     0.25841   0.66120   0.73183   0.01267  Uiso   1.00
O545   O     0.13090   0.55736   0.75185   0.01267  Uiso   1.00
O546   O     0.19004   0.56598   0.92181   0.01267  Uiso   1.00
O547   O     0.30550   0.56891   0.01015   0.01267  Uiso   1.00
O548   O     0.41344   0.55865   0.90589   0.01267  Uiso   1.00
O549   O     0.38467   0.56225   0.71410   0.01267  Uiso   1.00
O550   O     0.25952   0.56991   0.75655   0.01267  Uiso   1.00
O551   O     0.17338   0.61697   0.79961   0.01267  Uiso   1.00
O552   O     0.41695   0.61662   0.81432   0.01267  Uiso   1.00
O553   O     0.07169   0.70613   0.57822   0.01267  Uiso   1.00
O554   O     0.08562   0.64069   0.56515   0.01267  Uiso   1.00
O555   O     0.10105   0.57501   0.56698   0.01267  Uiso   1.00
O556   O     0.30466   0.70426   0.59967   0.01267  Uiso   1.00
O557   O     0.31726   0.63933   0.56944   0.01267  Uiso   1.00
O558   O     0.29940   0.57379   0.56865   0.01267  Uiso   1.00
O559   O     0.50562   0.66399   0.77575   0.01267  Uiso   1.00
O560   O     0.50642   0.57019   0.77408   0.01267  Uiso   1.00
O561   O     0.43043   0.76716   0.13569   0.01267  Uiso   1.00
O562   O     0.19133   0.76437   0.14067   0.01267  Uiso   1.00
O563   O     0.27479   0.76621   0.56361   0.01267  Uiso   1.00
O564   O     0.10833   0.76817   0.54396   0.01267  Uiso   1.00
O565   O     0.06697   0.51638   0.63420   0.01267  Uiso   1.00
O566   O     0.29812   0.51604   0.65932   0.01267  Uiso   1.00
O567   O     0.22338   0.51910   0.05204   0.01267  Uiso   1.00
O568   O     0.38466   0.51791   0.05236   0.01267  Uiso   1.00
O569   O     0.57021   0.51699   0.84204   0.01267  Uiso   1.00
O570   O     0.79906   0.51746   0.82217   0.01267  Uiso   1.00
O571   O     0.72395   0.51636   0.42484   0.01267  Uiso   1.00
O572   O     0.88999   0.51639   0.42706   0.01267  Uiso   1.00
O573   O     0.93183   0.76698   0.34066   0.01267  Uiso   1.00
O574   O     0.69930   0.76783   0.32292   0.01267  Uiso   1.00
O575   O     0.77509   0.76593   0.92055   0.01267  Uiso   1.00
O576   O     0.61010   0.76673   0.92590   0.01267  Uiso   1.00
H577   H     0.36627   0.81059   0.45788   0.01267  Uiso   1.00
H578   H     0.57561   0.74173   0.51070   0.01267  Uiso   1.00
H579   H     0.52832   0.78345   0.37683   0.01267  Uiso   1.00
H580   H     0.53103   0.75597   0.68921   0.01267  Uiso   1.00
H581   H     0.45175   0.80813   0.68548   0.01267  Uiso   1.00
C582   C     0.51771   0.76963   0.62280   0.01267  Uiso   1.00
C583   C     0.47644   0.79646   0.62363   0.01267  Uiso   1.00
C584   C     0.54163   0.76193   0.52642   0.01267  Uiso   1.00
C585   C     0.51796   0.78291   0.45534   0.01267  Uiso   1.00
S586   S     0.46859   0.81295   0.50691   0.01267  Uiso   1.00
loop_
_geom_bond_atom_site_label_1
_geom_bond_atom_site_label_2
_geom_bond_distance
_geom_bond_site_symmetry_2
_ccdc_geom_bond_type
Si1    O97     1.616   .     S
Si1    O111    1.628   .     S
Si1    O112    1.630   .     S
Si1    O227    1.621   .     S
Si2    O97     1.632   .     S
Si2    O98     1.639   .     S
Si2    O102    1.635   .     S
Si2    O109    1.598   .     S
Si3    O98     1.617   .     S
Si3    O99     1.628   .     S
Si3    O137    1.634   .     S
Si3    O138    1.625   .     S
Si4    O99     1.620   .     S
Si4    O100    1.616   .     S
Si4    O134    1.627   .     S
Si4    O135    1.624   .     S
Si5    O100    1.625   .     S
Si5    O101    1.619   .     S
Si5    O110    1.623   .     S
Si5    O117    1.626   1_455 S
Si6    O101    1.627   .     S
Si6    O102    1.622   .     S
Si6    O114    1.624   .     S
Si6    O115    1.626   .     S
Si7    O104    1.700   .     S
Si7    O105    1.613   .     S
Si7    O136    1.612   .     S
Si7    O275    1.613   .     S
Si8    O105    1.647   .     S
Si8    O106    1.611   .     S
Si8    O133    1.619   .     S
Si8    O276    1.625   .     S
Si9    O106    1.629   .     S
Si9    O107    1.618   .     S
Si9    O110    1.622   .     S
Si9    O118    1.623   1_455 S
Si10   O107    1.640   .     S
Si10   O108    1.605   .     S
Si10   O116    1.632   .     S
Si10   O274    1.629   .     S
Si11   O119    1.625   .     S
Si11   O133    1.627   .     S
Si11   O134    1.627   .     S
Si11   O205    1.622   .     S
Si12   O119    1.628   .     S
Si12   O120    1.615   .     S
Si12   O124    1.629   .     S
Si12   O131    1.624   .     S
Si13   O115    1.623   .     S
Si13   O116    1.616   .     S
Si13   O120    1.626   1_554 S
Si13   O121    1.625   .     S
Si14   O112    1.626   .     S
Si14   O113    1.620   .     S
Si14   O121    1.620   .     S
Si14   O122    1.628   1_554 S
Si15   O122    1.624   .     S
Si15   O123    1.630   .     S
Si15   O132    1.619   .     S
Si15   O139    1.626   .     S
Si16   O123    1.624   .     S
Si16   O124    1.616   .     S
Si16   O136    1.640   .     S
Si16   O137    1.619   .     S
Si17   O125    1.618   .     S
Si17   O135    1.626   .     S
Si17   O206    1.630   .     S
Si17   O565    1.622   .     S
Si18   O125    1.615   .     S
Si18   O126    1.618   .     S
Si18   O130    1.627   .     S
Si18   O131    1.622   .     S
Si19   O114    1.616   .     S
Si19   O126    1.623   1_554 S
Si19   O127    1.634   .     S
Si19   O567    1.619   .     S
Si20   O111    1.618   .     S
Si20   O127    1.633   .     S
Si20   O128    1.624   1_554 S
Si20   O568    1.626   .     S
Si21   O128    1.622   .     S
Si21   O129    1.626   .     S
Si21   O132    1.621   .     S
Si21   O140    1.624   .     S
Si22   O129    1.627   .     S
Si22   O130    1.628   .     S
Si22   O138    1.622   .     S
Si22   O566    1.625   .     S
Si23   O141    1.621   .     S
Si23   O155    1.627   .     S
Si23   O156    1.624   .     S
Si23   O271    1.623   .     S
Si24   O141    1.621   .     S
Si24   O142    1.626   .     S
Si24   O146    1.620   .     S
Si24   O153    1.624   .     S
Si25   O142    1.625   .     S
Si25   O143    1.624   .     S
Si25   O181    1.626   .     S
Si25   O182    1.630   .     S
Si26   O143    1.622   .     S
Si26   O144    1.620   .     S
Si26   O178    1.623   .     S
Si26   O179    1.624   .     S
Si27   O144    1.628   .     S
Si27   O145    1.622   .     S
Si27   O154    1.628   .     S
Si27   O161    1.624   1_655 S
Si28   O145    1.621   .     S
Si28   O146    1.624   .     S
Si28   O158    1.623   .     S
Si28   O159    1.624   .     S
Si29   O147    1.620   .     S
Si29   O157    1.627   .     S
Si29   O272    1.630   .     S
Si29   O281    1.621   .     S
Si30   O147    1.616   .     S
Si30   O148    1.620   .     S
Si30   O152    1.626   .     S
Si30   O153    1.624   .     S
Si31   O148    1.625   .     S
Si31   O149    1.631   .     S
Si31   O180    1.621   .     S
Si31   O283    1.623   .     S
Si32   O149    1.631   .     S
Si32   O150    1.624   .     S
Si32   O177    1.620   .     S
Si32   O284    1.624   .     S
Si33   O150    1.626   .     S
Si33   O151    1.626   .     S
Si33   O154    1.625   .     S
Si33   O162    1.626   1_655 S
Si34   O151    1.627   .     S
Si34   O152    1.628   .     S
Si34   O160    1.626   .     S
Si34   O282    1.621   .     S
Si35   O163    1.622   .     S
Si35   O177    1.624   .     S
Si35   O178    1.626   .     S
Si35   O249    1.621   .     S
Si36   O163    1.621   .     S
Si36   O164    1.624   .     S
Si36   O168    1.621   .     S
Si36   O175    1.624   .     S
Si37   O159    1.625   .     S
Si37   O160    1.625   .     S
Si37   O164    1.622   1_556 S
Si37   O165    1.623   .     S
Si38   O156    1.625   .     S
Si38   O157    1.623   .     S
Si38   O165    1.618   .     S
Si38   O166    1.617   1_556 S
Si39   O166    1.625   .     S
Si39   O167    1.622   .     S
Si39   O176    1.627   .     S
Si39   O183    1.624   .     S
Si40   O167    1.622   .     S
Si40   O168    1.622   .     S
Si40   O180    1.623   .     S
Si40   O181    1.629   .     S
Si41   O169    1.623   .     S
Si41   O179    1.628   .     S
Si41   O250    1.630   .     S
Si41   O285    1.622   .     S
Si42   O169    1.620   .     S
Si42   O170    1.623   .     S
Si42   O174    1.629   .     S
Si42   O175    1.622   .     S
Si43   O158    1.621   .     S
Si43   O170    1.626   1_556 S
Si43   O171    1.634   .     S
Si43   O287    1.623   .     S
Si44   O155    1.624   .     S
Si44   O171    1.632   .     S
Si44   O172    1.620   1_556 S
Si44   O288    1.625   .     S
Si45   O172    1.623   .     S
Si45   O173    1.631   .     S
Si45   O176    1.623   .     S
Si45   O184    1.623   .     S
Si46   O173    1.630   .     S
Si46   O174    1.627   .     S
Si46   O182    1.630   .     S
Si46   O286    1.624   .     S
Si47   O139    1.625   .     S
Si47   O185    1.623   .     S
Si47   O199    1.627   .     S
Si47   O200    1.627   .     S
Si48   O185    1.624   .     S
Si48   O186    1.626   .     S
Si48   O190    1.621   .     S
Si48   O197    1.623   .     S
Si49   O186    1.625   .     S
Si49   O187    1.628   .     S
Si49   O225    1.622   .     S
Si49   O226    1.626   .     S
Si50   O187    1.623   .     S
Si50   O188    1.622   .     S
Si50   O222    1.621   .     S
Si50   O223    1.625   .     S
Si51   O188    1.626   .     S
Si51   O189    1.622   .     S
Si51   O198    1.624   .     S
Si51   O205    1.623   1_655 S
Si52   O189    1.623   .     S
Si52   O190    1.622   .     S
Si52   O202    1.624   .     S
Si52   O203    1.631   .     S
Si53   O140    1.627   .     S
Si53   O191    1.625   .     S
Si53   O201    1.629   .     S
Si53   O569    1.622   .     S
Si54   O191    1.623   .     S
Si54   O192    1.623   .     S
Si54   O196    1.625   .     S
Si54   O197    1.621   .     S
Si55   O192    1.626   .     S
Si55   O193    1.633   .     S
Si55   O224    1.622   .     S
Si55   O571    1.625   .     S
Si56   O193    1.632   .     S
Si56   O194    1.620   .     S
Si56   O221    1.620   .     S
Si56   O572    1.626   .     S
Si57   O194    1.622   .     S
Si57   O195    1.623   .     S
Si57   O198    1.623   .     S
Si57   O206    1.626   1_655 S
Si58   O195    1.624   .     S
Si58   O196    1.626   .     S
Si58   O204    1.624   .     S
Si58   O570    1.622   .     S
Si59   O117    1.622   .     S
Si59   O207    1.626   .     S
Si59   O221    1.625   .     S
Si59   O222    1.626   .     S
Si60   O207    1.624   .     S
Si60   O208    1.619   .     S
Si60   O212    1.621   .     S
Si60   O219    1.625   .     S
Si61   O203    1.628   .     S
Si61   O204    1.625   .     S
Si61   O208    1.618   1_556 S
Si61   O209    1.629   .     S
Si62   O200    1.625   .     S
Si62   O201    1.625   .     S
Si62   O209    1.626   .     S
Si62   O210    1.620   1_556 S
Si63   O211    1.619   .     S
Si63   O212    1.621   .     S
Si63   O224    1.625   .     S
Si63   O225    1.622   .     S
Si64   O118    1.622   .     S
Si64   O213    1.623   .     S
Si64   O223    1.630   .     S
Si64   O285    1.622   .     S
Si65   O213    1.620   .     S
Si65   O214    1.616   .     S
Si65   O218    1.626   .     S
Si65   O219    1.622   .     S
Si66   O202    1.619   .     S
Si66   O214    1.620   1_556 S
Si66   O215    1.632   .     S
Si66   O287    1.623   .     S
Si67   O199    1.622   .     S
Si67   O215    1.630   .     S
Si67   O216    1.622   1_556 S
Si67   O288    1.626   .     S
Si68   O217    1.627   .     S
Si68   O218    1.626   .     S
Si68   O226    1.625   .     S
Si68   O286    1.625   .     S
Si69   O183    1.623   .     S
Si69   O229    1.622   .     S
Si69   O243    1.627   .     S
Si69   O244    1.625   .     S
Si70   O229    1.621   .     S
Si70   O230    1.629   .     S
Si70   O234    1.622   .     S
Si70   O241    1.628   .     S
Si71   O230    1.626   .     S
Si71   O231    1.627   .     S
Si71   O269    1.627   .     S
Si71   O270    1.630   .     S
Si72   O231    1.623   .     S
Si72   O232    1.623   .     S
Si72   O266    1.624   .     S
Si72   O267    1.624   .     S
Si73   O232    1.630   .     S
Si73   O233    1.621   .     S
Si73   O242    1.628   .     S
Si73   O249    1.623   1_455 S
Si74   O233    1.621   .     S
Si74   O234    1.624   .     S
Si74   O246    1.622   .     S
Si74   O247    1.624   .     S
Si75   O184    1.633   .     S
Si75   O235    1.621   .     S
Si75   O245    1.631   .     S
Si75   O273    1.616   .     S
Si76   O236    1.622   .     S
Si76   O237    1.627   .     S
Si76   O268    1.614   .     S
Si76   O275    1.638   .     S
Si77   O237    1.633   .     S
Si77   O238    1.624   .     S
Si77   O265    1.623   .     S
Si77   O276    1.627   .     S
Si78   O238    1.630   .     S
Si78   O239    1.621   .     S
Si78   O242    1.626   .     S
Si78   O250    1.628   1_455 S
Si79   O239    1.629   .     S
Si79   O240    1.632   .     S
Si79   O248    1.621   .     S
Si79   O274    1.612   .     S
Si80   O161    1.622   .     S
Si80   O251    1.625   .     S
Si80   O265    1.630   .     S
Si80   O266    1.626   .     S
Si81   O251    1.625   .     S
Si81   O252    1.622   .     S
Si81   O256    1.621   .     S
Si81   O263    1.623   .     S
Si82   O247    1.624   .     S
Si82   O248    1.617   .     S
Si82   O252    1.623   1_554 S
Si82   O253    1.625   .     S
Si83   O244    1.623   .     S
Si83   O245    1.624   .     S
Si83   O253    1.620   .     S
Si83   O254    1.621   1_554 S
Si84   O254    1.626   .     S
Si84   O255    1.622   .     S
Si84   O264    1.627   .     S
Si84   O271    1.626   .     S
Si85   O255    1.621   .     S
Si85   O256    1.621   .     S
Si85   O268    1.623   .     S
Si85   O269    1.625   .     S
Si86   O162    1.629   .     S
Si86   O257    1.624   .     S
Si86   O267    1.629   .     S
Si86   O277    1.622   .     S
Si87   O257    1.622   .     S
Si87   O258    1.621   .     S
Si87   O262    1.627   .     S
Si87   O263    1.623   .     S
Si88   O246    1.623   .     S
Si88   O258    1.626   1_554 S
Si88   O259    1.633   .     S
Si88   O279    1.618   .     S
Si89   O243    1.625   .     S
Si89   O259    1.632   .     S
Si89   O260    1.624   1_554 S
Si89   O280    1.623   .     S
Si90   O260    1.625   .     S
Si90   O261    1.628   .     S
Si90   O264    1.626   .     S
Si90   O272    1.627   .     S
Si91   O261    1.629   .     S
Si91   O262    1.629   .     S
Si91   O270    1.631   .     S
Si91   O278    1.624   .     S
Si92   O210    1.629   .     S
Si92   O211    1.621   .     S
Si92   O220    1.627   .     S
Si92   O227    1.616   .     S
Si93   O216    1.626   .     S
Si93   O217    1.630   .     S
Si93   O220    1.623   .     S
Si93   O228    1.616   .     S
Si94   O103    1.598   .     S
Si94   O113    1.635   .     S
Si94   O228    1.637   .     S
Si94   O273    1.633   .     S
Si95   O235    1.615   .     S
Si95   O236    1.628   .     S
Si95   O240    1.623   .     S
Si95   O241    1.629   .     S
Al96   O103    1.717   .     S
Al96   O104    1.885   .     S
Al96   O108    1.717   .     S
Al96   O109    1.712   .     S
O117   Si5     1.626   1_655 S
O118   Si9     1.623   1_655 S
O120   Si13    1.626   1_556 S
O122   Si14    1.628   1_556 S
O126   Si19    1.623   1_556 S
O128   Si20    1.624   1_556 S
O161   Si27    1.624   1_455 S
O162   Si33    1.626   1_455 S
O164   Si37    1.622   1_554 S
O166   Si38    1.617   1_554 S
O170   Si43    1.626   1_554 S
O172   Si44    1.620   1_554 S
O205   Si51    1.623   1_455 S
O206   Si57    1.626   1_455 S
O208   Si61    1.618   1_554 S
O210   Si62    1.620   1_554 S
O214   Si66    1.620   1_554 S
O216   Si67    1.622   1_554 S
O249   Si73    1.623   1_655 S
O250   Si78    1.628   1_655 S
O252   Si82    1.623   1_556 S
O254   Si83    1.621   1_556 S
O258   Si88    1.626   1_556 S
O260   Si89    1.624   1_556 S
O277   Si305   1.622   1_545 S
O278   Si310   1.625   1_545 S
O279   Si307   1.619   1_545 S
O280   Si308   1.626   1_545 S
O281   Si341   1.622   1_545 S
O282   Si346   1.622   1_545 S
O283   Si343   1.625   1_545 S
O284   Si344   1.626   1_545 S
Si289  O385    1.616   .     S
Si289  O399    1.628   .     S
Si289  O400    1.630   .     S
Si289  O515    1.621   .     S
Si290  O385    1.632   .     S
Si290  O386    1.639   .     S
Si290  O390    1.635   .     S
Si290  O397    1.598   .     S
Si291  O386    1.617   .     S
Si291  O387    1.628   .     S
Si291  O425    1.634   .     S
Si291  O426    1.625   .     S
Si292  O387    1.620   .     S
Si292  O388    1.616   .     S
Si292  O422    1.627   .     S
Si292  O423    1.624   .     S
Si293  O388    1.625   .     S
Si293  O389    1.619   .     S
Si293  O398    1.623   .     S
Si293  O405    1.626   1_455 S
Si294  O389    1.627   .     S
Si294  O390    1.622   .     S
Si294  O402    1.624   .     S
Si294  O403    1.626   .     S
Si295  O392    1.700   .     S
Si295  O393    1.613   .     S
Si295  O424    1.612   .     S
Si295  O563    1.613   .     S
Si296  O393    1.647   .     S
Si296  O394    1.611   .     S
Si296  O421    1.619   .     S
Si296  O564    1.625   .     S
Si297  O394    1.629   .     S
Si297  O395    1.618   .     S
Si297  O398    1.622   .     S
Si297  O406    1.623   1_455 S
Si298  O395    1.640   .     S
Si298  O396    1.605   .     S
Si298  O404    1.632   .     S
Si298  O562    1.629   .     S
Si299  O407    1.625   .     S
Si299  O421    1.627   .     S
Si299  O422    1.627   .     S
Si299  O493    1.622   .     S
Si300  O407    1.628   .     S
Si300  O408    1.615   .     S
Si300  O412    1.629   .     S
Si300  O419    1.624   .     S
Si301  O403    1.623   .     S
Si301  O404    1.616   .     S
Si301  O408    1.626   1_554 S
Si301  O409    1.625   .     S
Si302  O400    1.626   .     S
Si302  O401    1.620   .     S
Si302  O409    1.620   .     S
Si302  O410    1.628   1_554 S
Si303  O410    1.624   .     S
Si303  O411    1.630   .     S
Si303  O420    1.619   .     S
Si303  O427    1.626   .     S
Si304  O411    1.624   .     S
Si304  O412    1.616   .     S
Si304  O424    1.640   .     S
Si304  O425    1.619   .     S
Si305  O413    1.618   .     S
Si305  O423    1.626   .     S
Si305  O494    1.630   .     S
Si305  O277    1.622   1_565 S
Si306  O413    1.615   .     S
Si306  O414    1.618   .     S
Si306  O418    1.627   .     S
Si306  O419    1.622   .     S
Si307  O402    1.616   .     S
Si307  O414    1.623   1_554 S
Si307  O415    1.634   .     S
Si307  O279    1.619   1_565 S
Si308  O399    1.618   .     S
Si308  O415    1.633   .     S
Si308  O416    1.624   1_554 S
Si308  O280    1.626   1_565 S
Si309  O416    1.622   .     S
Si309  O417    1.626   .     S
Si309  O420    1.621   .     S
Si309  O428    1.624   .     S
Si310  O417    1.627   .     S
Si310  O418    1.628   .     S
Si310  O426    1.622   .     S
Si310  O278    1.625   1_565 S
Si311  O429    1.621   .     S
Si311  O443    1.627   .     S
Si311  O444    1.624   .     S
Si311  O559    1.623   .     S
Si312  O429    1.621   .     S
Si312  O430    1.626   .     S
Si312  O434    1.620   .     S
Si312  O441    1.624   .     S
Si313  O430    1.625   .     S
Si313  O431    1.624   .     S
Si313  O469    1.626   .     S
Si313  O470    1.630   .     S
Si314  O431    1.622   .     S
Si314  O432    1.620   .     S
Si314  O466    1.623   .     S
Si314  O467    1.624   .     S
Si315  O432    1.628   .     S
Si315  O433    1.622   .     S
Si315  O442    1.628   .     S
Si315  O449    1.624   1_655 S
Si316  O433    1.621   .     S
Si316  O434    1.624   .     S
Si316  O446    1.623   .     S
Si316  O447    1.624   .     S
Si317  O435    1.620   .     S
Si317  O445    1.627   .     S
Si317  O560    1.630   .     S
Si317  O569    1.621   .     S
Si318  O435    1.616   .     S
Si318  O436    1.620   .     S
Si318  O440    1.626   .     S
Si318  O441    1.624   .     S
Si319  O436    1.625   .     S
Si319  O437    1.631   .     S
Si319  O468    1.621   .     S
Si319  O571    1.623   .     S
Si320  O437    1.631   .     S
Si320  O438    1.624   .     S
Si320  O465    1.620   .     S
Si320  O572    1.624   .     S
Si321  O438    1.626   .     S
Si321  O439    1.626   .     S
Si321  O442    1.625   .     S
Si321  O450    1.626   1_655 S
Si322  O439    1.627   .     S
Si322  O440    1.628   .     S
Si322  O448    1.626   .     S
Si322  O570    1.621   .     S
Si323  O451    1.622   .     S
Si323  O465    1.624   .     S
Si323  O466    1.626   .     S
Si323  O537    1.621   .     S
Si324  O451    1.621   .     S
Si324  O452    1.624   .     S
Si324  O456    1.621   .     S
Si324  O463    1.624   .     S
Si325  O447    1.625   .     S
Si325  O448    1.625   .     S
Si325  O452    1.622   1_556 S
Si325  O453    1.623   .     S
Si326  O444    1.625   .     S
Si326  O445    1.623   .     S
Si326  O453    1.618   .     S
Si326  O454    1.617   1_556 S
Si327  O454    1.625   .     S
Si327  O455    1.622   .     S
Si327  O464    1.627   .     S
Si327  O471    1.624   .     S
Si328  O455    1.622   .     S
Si328  O456    1.622   .     S
Si328  O468    1.623   .     S
Si328  O469    1.629   .     S
Si329  O457    1.623   .     S
Si329  O467    1.628   .     S
Si329  O538    1.630   .     S
Si329  O573    1.622   .     S
Si330  O457    1.620   .     S
Si330  O458    1.623   .     S
Si330  O462    1.629   .     S
Si330  O463    1.622   .     S
Si331  O446    1.621   .     S
Si331  O458    1.626   1_556 S
Si331  O459    1.634   .     S
Si331  O575    1.623   .     S
Si332  O443    1.624   .     S
Si332  O459    1.632   .     S
Si332  O460    1.620   1_556 S
Si332  O576    1.625   .     S
Si333  O460    1.623   .     S
Si333  O461    1.631   .     S
Si333  O464    1.623   .     S
Si333  O472    1.623   .     S
Si334  O461    1.630   .     S
Si334  O462    1.627   .     S
Si334  O470    1.630   .     S
Si334  O574    1.624   .     S
Si335  O427    1.625   .     S
Si335  O473    1.623   .     S
Si335  O487    1.627   .     S
Si335  O488    1.627   .     S
Si336  O473    1.624   .     S
Si336  O474    1.626   .     S
Si336  O478    1.621   .     S
Si336  O485    1.623   .     S
Si337  O474    1.625   .     S
Si337  O475    1.628   .     S
Si337  O513    1.622   .     S
Si337  O514    1.626   .     S
Si338  O475    1.623   .     S
Si338  O476    1.622   .     S
Si338  O510    1.621   .     S
Si338  O511    1.625   .     S
Si339  O476    1.626   .     S
Si339  O477    1.622   .     S
Si339  O486    1.624   .     S
Si339  O493    1.623   1_655 S
Si340  O477    1.623   .     S
Si340  O478    1.622   .     S
Si340  O490    1.624   .     S
Si340  O491    1.631   .     S
Si341  O428    1.627   .     S
Si341  O479    1.625   .     S
Si341  O489    1.629   .     S
Si341  O281    1.622   1_565 S
Si342  O479    1.623   .     S
Si342  O480    1.623   .     S
Si342  O484    1.625   .     S
Si342  O485    1.621   .     S
Si343  O480    1.626   .     S
Si343  O481    1.633   .     S
Si343  O512    1.622   .     S
Si343  O283    1.625   1_565 S
Si344  O481    1.632   .     S
Si344  O482    1.620   .     S
Si344  O509    1.620   .     S
Si344  O284    1.626   1_565 S
Si345  O482    1.622   .     S
Si345  O483    1.623   .     S
Si345  O486    1.623   .     S
Si345  O494    1.626   1_655 S
Si346  O483    1.624   .     S
Si346  O484    1.626   .     S
Si346  O492    1.624   .     S
Si346  O282    1.622   1_565 S
Si347  O405    1.622   .     S
Si347  O495    1.626   .     S
Si347  O509    1.625   .     S
Si347  O510    1.626   .     S
Si348  O495    1.624   .     S
Si348  O496    1.619   .     S
Si348  O500    1.621   .     S
Si348  O507    1.625   .     S
Si349  O491    1.628   .     S
Si349  O492    1.625   .     S
Si349  O496    1.618   1_556 S
Si349  O497    1.629   .     S
Si350  O488    1.625   .     S
Si350  O489    1.625   .     S
Si350  O497    1.626   .     S
Si350  O498    1.620   1_556 S
Si351  O499    1.619   .     S
Si351  O500    1.621   .     S
Si351  O512    1.625   .     S
Si351  O513    1.622   .     S
Si352  O406    1.622   .     S
Si352  O501    1.623   .     S
Si352  O511    1.630   .     S
Si352  O573    1.622   .     S
Si353  O501    1.620   .     S
Si353  O502    1.616   .     S
Si353  O506    1.626   .     S
Si353  O507    1.622   .     S
Si354  O490    1.619   .     S
Si354  O502    1.620   1_556 S
Si354  O503    1.632   .     S
Si354  O575    1.623   .     S
Si355  O487    1.622   .     S
Si355  O503    1.630   .     S
Si355  O504    1.622   1_556 S
Si355  O576    1.626   .     S
Si356  O505    1.627   .     S
Si356  O506    1.626   .     S
Si356  O514    1.625   .     S
Si356  O574    1.625   .     S
Si357  O471    1.623   .     S
Si357  O517    1.622   .     S
Si357  O531    1.627   .     S
Si357  O532    1.625   .     S
Si358  O517    1.621   .     S
Si358  O518    1.629   .     S
Si358  O522    1.622   .     S
Si358  O529    1.628   .     S
Si359  O518    1.626   .     S
Si359  O519    1.627   .     S
Si359  O557    1.627   .     S
Si359  O558    1.630   .     S
Si360  O519    1.623   .     S
Si360  O520    1.623   .     S
Si360  O554    1.624   .     S
Si360  O555    1.624   .     S
Si361  O520    1.630   .     S
Si361  O521    1.621   .     S
Si361  O530    1.628   .     S
Si361  O537    1.623   1_455 S
Si362  O521    1.621   .     S
Si362  O522    1.624   .     S
Si362  O534    1.622   .     S
Si362  O535    1.624   .     S
Si363  O472    1.633   .     S
Si363  O523    1.621   .     S
Si363  O533    1.631   .     S
Si363  O561    1.616   .     S
Si364  O524    1.622   .     S
Si364  O525    1.627   .     S
Si364  O556    1.614   .     S
Si364  O563    1.638   .     S
Si365  O525    1.633   .     S
Si365  O526    1.624   .     S
Si365  O553    1.623   .     S
Si365  O564    1.627   .     S
Si366  O526    1.630   .     S
Si366  O527    1.621   .     S
Si366  O530    1.626   .     S
Si366  O538    1.628   1_455 S
Si367  O527    1.629   .     S
Si367  O528    1.632   .     S
Si367  O536    1.621   .     S
Si367  O562    1.612   .     S
Si368  O449    1.622   .     S
Si368  O539    1.625   .     S
Si368  O553    1.630   .     S
Si368  O554    1.626   .     S
Si369  O539    1.625   .     S
Si369  O540    1.622   .     S
Si369  O544    1.621   .     S
Si369  O551    1.623   .     S
Si370  O535    1.624   .     S
Si370  O536    1.617   .     S
Si370  O540    1.623   1_554 S
Si370  O541    1.625   .     S
Si371  O532    1.623   .     S
Si371  O533    1.624   .     S
Si371  O541    1.620   .     S
Si371  O542    1.621   1_554 S
Si372  O542    1.626   .     S
Si372  O543    1.622   .     S
Si372  O552    1.627   .     S
Si372  O559    1.626   .     S
Si373  O543    1.621   .     S
Si373  O544    1.621   .     S
Si373  O556    1.623   .     S
Si373  O557    1.625   .     S
Si374  O450    1.629   .     S
Si374  O545    1.624   .     S
Si374  O555    1.629   .     S
Si374  O565    1.622   .     S
Si375  O545    1.622   .     S
Si375  O546    1.621   .     S
Si375  O550    1.627   .     S
Si375  O551    1.623   .     S
Si376  O534    1.623   .     S
Si376  O546    1.626   1_554 S
Si376  O547    1.633   .     S
Si376  O567    1.618   .     S
Si377  O531    1.625   .     S
Si377  O547    1.632   .     S
Si377  O548    1.624   1_554 S
Si377  O568    1.623   .     S
Si378  O548    1.625   .     S
Si378  O549    1.628   .     S
Si378  O552    1.626   .     S
Si378  O560    1.627   .     S
Si379  O549    1.629   .     S
Si379  O550    1.629   .     S
Si379  O558    1.631   .     S
Si379  O566    1.624   .     S
Si380  O498    1.629   .     S
Si380  O499    1.621   .     S
Si380  O508    1.627   .     S
Si380  O515    1.616   .     S
Si381  O504    1.626   .     S
Si381  O505    1.630   .     S
Si381  O508    1.623   .     S
Si381  O516    1.616   .     S
Si382  O391    1.598   .     S
Si382  O401    1.635   .     S
Si382  O516    1.637   .     S
Si382  O561    1.633   .     S
Si383  O523    1.615   .     S
Si383  O524    1.628   .     S
Si383  O528    1.623   .     S
Si383  O529    1.629   .     S
Al384  O391    1.717   .     S
Al384  O392    1.885   .     S
Al384  O396    1.717   .     S
Al384  O397    1.712   .     S
O392   H577    1.007   .     S
O405   Si293   1.626   1_655 S
O406   Si297   1.623   1_655 S
O408   Si301   1.626   1_556 S
O410   Si302   1.628   1_556 S
O414   Si307   1.623   1_556 S
O416   Si308   1.624   1_556 S
O449   Si315   1.624   1_455 S
O450   Si321   1.626   1_455 S
O452   Si325   1.622   1_554 S
O454   Si326   1.617   1_554 S
O458   Si331   1.626   1_554 S
O460   Si332   1.620   1_554 S
O493   Si339   1.623   1_455 S
O494   Si345   1.626   1_455 S
O496   Si349   1.618   1_554 S
O498   Si350   1.620   1_554 S
O502   Si354   1.620   1_554 S
O504   Si355   1.622   1_554 S
O537   Si361   1.623   1_655 S
O538   Si366   1.628   1_655 S
O540   Si370   1.623   1_556 S
O542   Si371   1.621   1_556 S
O546   Si376   1.626   1_556 S
O548   Si377   1.624   1_556 S
H578   C584    1.091   .     S
H579   C585    1.086   .     S
H580   C582    1.091   .     S
H581   C583    1.086   .     S
C582   C583    1.371   .     D
C582   C584    1.430   .     S
C583   S586    1.725   .     S
C584   C585    1.371   .     D
C585   S586    1.724   .     S
