data_T5-O2-saifen
_audit_creation_date              2022-06-16
_audit_creation_method            'Materials Studio'
_symmetry_space_group_name_H-M    'P1'
_symmetry_Int_Tables_number       1
_symmetry_cell_setting            triclinic
loop_
_symmetry_equiv_pos_as_xyz
  x,y,z
_cell_length_a                    20.3820
_cell_length_b                    40.3304
_cell_length_c                    13.5742
_cell_angle_alpha                 90
_cell_angle_beta                  90
_cell_angle_gamma                 90
loop_
_atom_site_label
_atom_site_type_symbol
_atom_site_fract_x
_atom_site_fract_y
_atom_site_fract_z
_atom_site_U_iso_or_equiv
_atom_site_adp_type
_atom_site_occupancy
Si1    Si    0.42535   0.42128   0.14370   0.01267  Uiso   1.00
Si2    Si    0.30924   0.40806   0.29141   0.01267  Uiso   1.00
Si3    Si    0.28159   0.42710   0.51020   0.01267  Uiso   1.00
Si4    Si    0.12310   0.42570   0.51212   0.01267  Uiso   1.00
Si5    Si    0.07227   0.40771   0.29879   0.01267  Uiso   1.00
Si6    Si    0.18452   0.42135   0.15219   0.01267  Uiso   1.00
Si7    Si    0.42448   0.30669   0.16374   0.01267  Uiso   1.00
Si8    Si    0.30780   0.32894   0.30250   0.01267  Uiso   1.00
Si9    Si    0.26339   0.30716   0.51371   0.01267  Uiso   1.00
Si10   Si    0.11044   0.30649   0.51309   0.01267  Uiso   1.00
Si11   Si    0.06447   0.32880   0.30167   0.01267  Uiso   1.00
Si12   Si    0.18409   0.30668   0.17190   0.01267  Uiso   1.00
Si13   Si    0.07890   0.36534   0.65207   0.01267  Uiso   1.00
Si14   Si    0.19588   0.38015   0.79981   0.01267  Uiso   1.00
Si15   Si    0.21848   0.36025   0.01936   0.01267  Uiso   1.00
Si16   Si    0.37503   0.35948   0.01526   0.01267  Uiso   1.00
Si17   Si    0.31054   0.36600   0.64684   0.01267  Uiso   1.00
Si18   Si    0.07722   0.47890   0.66338   0.01267  Uiso   1.00
Si19   Si    0.19468   0.45893   0.80641   0.01267  Uiso   1.00
Si20   Si    0.23210   0.48025   0.02003   0.01267  Uiso   1.00
Si21   Si    0.38544   0.47991   0.00856   0.01267  Uiso   1.00
Si22   Si    0.42993   0.45927   0.79346   0.01267  Uiso   1.00
Si23   Si    0.31367   0.48103   0.66682   0.01267  Uiso   1.00
Si24   Si    0.57491   0.17079   0.83312   0.01267  Uiso   1.00
Si25   Si    0.69128   0.15684   0.68359   0.01267  Uiso   1.00
Si26   Si    0.71866   0.17605   0.46629   0.01267  Uiso   1.00
Si27   Si    0.87687   0.17605   0.46799   0.01267  Uiso   1.00
Si28   Si    0.92641   0.15708   0.68015   0.01267  Uiso   1.00
Si29   Si    0.81379   0.16997   0.82736   0.01267  Uiso   1.00
Si30   Si    0.57632   0.05689   0.81829   0.01267  Uiso   1.00
Si31   Si    0.69297   0.07811   0.67431   0.01267  Uiso   1.00
Si32   Si    0.73078   0.05613   0.46140   0.01267  Uiso   1.00
Si33   Si    0.88420   0.05604   0.46996   0.01267  Uiso   1.00
Si34   Si    0.93233   0.07813   0.68077   0.01267  Uiso   1.00
Si35   Si    0.81389   0.05754   0.81128   0.01267  Uiso   1.00
Si36   Si    0.92412   0.11478   0.33488   0.01267  Uiso   1.00
Si37   Si    0.80769   0.12873   0.18766   0.01267  Uiso   1.00
Si38   Si    0.77888   0.11037   0.96887   0.01267  Uiso   1.00
Si39   Si    0.62048   0.11004   0.96975   0.01267  Uiso   1.00
Si40   Si    0.57191   0.12828   0.18338   0.01267  Uiso   1.00
Si41   Si    0.68416   0.11539   0.32973   0.01267  Uiso   1.00
Si42   Si    0.92287   0.22941   0.31785   0.01267  Uiso   1.00
Si43   Si    0.80734   0.20787   0.17446   0.01267  Uiso   1.00
Si44   Si    0.76955   0.22870   0.95969   0.01267  Uiso   1.00
Si45   Si    0.61611   0.22900   0.96867   0.01267  Uiso   1.00
Si46   Si    0.56747   0.20719   0.18115   0.01267  Uiso   1.00
Si47   Si    0.68563   0.22954   0.30875   0.01267  Uiso   1.00
Si48   Si    0.57668   0.36358   0.83232   0.01267  Uiso   1.00
Si49   Si    0.69263   0.37858   0.68421   0.01267  Uiso   1.00
Si50   Si    0.72155   0.36182   0.46562   0.01267  Uiso   1.00
Si51   Si    0.87977   0.36093   0.46745   0.01267  Uiso   1.00
Si52   Si    0.93081   0.37844   0.67953   0.01267  Uiso   1.00
Si53   Si    0.81650   0.36429   0.82034   0.01267  Uiso   1.00
Si54   Si    0.57675   0.47916   0.81183   0.01267  Uiso   1.00
Si55   Si    0.69168   0.45787   0.66984   0.01267  Uiso   1.00
Si56   Si    0.73131   0.47858   0.45443   0.01267  Uiso   1.00
Si57   Si    0.88481   0.47965   0.46501   0.01267  Uiso   1.00
Si58   Si    0.93201   0.45734   0.67771   0.01267  Uiso   1.00
Si59   Si    0.81311   0.47908   0.80548   0.01267  Uiso   1.00
Si60   Si    0.92463   0.42171   0.32960   0.01267  Uiso   1.00
Si61   Si    0.80973   0.40682   0.18021   0.01267  Uiso   1.00
Si62   Si    0.78133   0.42425   0.96114   0.01267  Uiso   1.00
Si63   Si    0.62309   0.42499   0.96406   0.01267  Uiso   1.00
Si64   Si    0.68643   0.42076   0.32016   0.01267  Uiso   1.00
Si65   Si    0.92164   0.30696   0.31421   0.01267  Uiso   1.00
Si66   Si    0.80825   0.32785   0.16930   0.01267  Uiso   1.00
Si67   Si    0.77008   0.30638   0.95573   0.01267  Uiso   1.00
Si68   Si    0.61697   0.30556   0.96858   0.01267  Uiso   1.00
Si69   Si    0.68774   0.30821   0.30683   0.01267  Uiso   1.00
Si70   Si    0.42456   0.11436   0.15024   0.01267  Uiso   1.00
Si71   Si    0.30836   0.12966   0.29660   0.01267  Uiso   1.00
Si72   Si    0.28011   0.11308   0.51591   0.01267  Uiso   1.00
Si73   Si    0.12238   0.11092   0.51626   0.01267  Uiso   1.00
Si74   Si    0.07217   0.12834   0.30413   0.01267  Uiso   1.00
Si75   Si    0.18476   0.11584   0.15675   0.01267  Uiso   1.00
Si76   Si    0.42264   0.22908   0.16584   0.01267  Uiso   1.00
Si77   Si    0.30761   0.20831   0.30838   0.01267  Uiso   1.00
Si78   Si    0.26708   0.22981   0.52288   0.01267  Uiso   1.00
Si79   Si    0.11357   0.23001   0.51243   0.01267  Uiso   1.00
Si80   Si    0.06765   0.20722   0.30122   0.01267  Uiso   1.00
Si81   Si    0.18614   0.22817   0.17102   0.01267  Uiso   1.00
Si82   Si    0.07346   0.17177   0.64812   0.01267  Uiso   1.00
Si83   Si    0.18999   0.15746   0.79448   0.01267  Uiso   1.00
Si84   Si    0.21917   0.17462   0.01419   0.01267  Uiso   1.00
Si85   Si    0.37719   0.17509   0.01549   0.01267  Uiso   1.00
Si86   Si    0.31439   0.17228   0.65551   0.01267  Uiso   1.00
Si87   Si    0.07824   0.05654   0.66690   0.01267  Uiso   1.00
Si88   Si    0.19142   0.07853   0.81047   0.01267  Uiso   1.00
Si89   Si    0.23209   0.05758   0.02550   0.01267  Uiso   1.00
Si90   Si    0.38550   0.05631   0.01483   0.01267  Uiso   1.00
Si91   Si    0.43146   0.07861   0.80132   0.01267  Uiso   1.00
Si92   Si    0.31213   0.05846   0.67288   0.01267  Uiso   1.00
Si93   Si    0.57297   0.40782   0.17554   0.01267  Uiso   1.00
Si94   Si    0.56906   0.32900   0.17832   0.01267  Uiso   1.00
Si95   Si    0.42663   0.15776   0.80176   0.01267  Uiso   1.00
Al96   Al    0.42745   0.37948   0.80295   0.01267  Uiso   1.00
O97    O     0.36971   0.42357   0.22939   0.01267  Uiso   1.00
O98    O     0.30613   0.42717   0.39681   0.01267  Uiso   1.00
O99    O     0.20249   0.42310   0.51673   0.01267  Uiso   1.00
O100   O     0.09772   0.42535   0.39936   0.01267  Uiso   1.00
O101   O     0.11347   0.42205   0.20601   0.01267  Uiso   1.00
O102   O     0.24043   0.41357   0.23411   0.01267  Uiso   1.00
O103   O     0.36869   0.31071   0.24867   0.01267  Uiso   1.00
O104   O     0.30435   0.31354   0.41330   0.01267  Uiso   1.00
O105   O     0.18711   0.31694   0.49650   0.01267  Uiso   1.00
O106   O     0.07281   0.31151   0.40923   0.01267  Uiso   1.00
O107   O     0.11179   0.31116   0.22095   0.01267  Uiso   1.00
O108   O     0.23881   0.32155   0.24720   0.01267  Uiso   1.00
O109   O     0.32053   0.36854   0.30916   0.01267  Uiso   1.00
O110   O     0.08294   0.36786   0.30896   0.01267  Uiso   1.00
O111   O     0.42656   0.45572   0.08139   0.01267  Uiso   1.00
O112   O     0.41154   0.39029   0.07080   0.01267  Uiso   1.00
O113   O     0.40228   0.32493   0.06299   0.01267  Uiso   1.00
O114   O     0.19615   0.45736   0.10202   0.01267  Uiso   1.00
O115   O     0.18382   0.39267   0.06804   0.01267  Uiso   1.00
O116   O     0.18828   0.32642   0.06744   0.01267  Uiso   1.00
O117   O     0.99570   0.41625   0.27841   0.01267  Uiso   1.00
O118   O     0.98826   0.32365   0.26922   0.01267  Uiso   1.00
O119   O     0.13541   0.36515   0.73636   0.01267  Uiso   1.00
O120   O     0.20211   0.35972   0.90206   0.01267  Uiso   1.00
O121   O     0.29666   0.36215   0.04027   0.01267  Uiso   1.00
O122   O     0.38918   0.35985   0.89986   0.01267  Uiso   1.00
O123   O     0.38685   0.36033   0.69235   0.01267  Uiso   1.00
O124   O     0.26419   0.37589   0.73785   0.01267  Uiso   1.00
O125   O     0.13297   0.47432   0.74715   0.01267  Uiso   1.00
O126   O     0.19647   0.47645   0.91360   0.01267  Uiso   1.00
O127   O     0.30839   0.46876   0.01027   0.01267  Uiso   1.00
O128   O     0.41383   0.47805   0.89752   0.01267  Uiso   1.00
O129   O     0.38844   0.47806   0.70641   0.01267  Uiso   1.00
O130   O     0.26285   0.46565   0.74772   0.01267  Uiso   1.00
O131   O     0.18442   0.41923   0.82058   0.01267  Uiso   1.00
O132   O     0.40964   0.42097   0.79648   0.01267  Uiso   1.00
O133   O     0.07797   0.32943   0.59793   0.01267  Uiso   1.00
O134   O     0.09282   0.39408   0.57072   0.01267  Uiso   1.00
O135   O     0.09905   0.46011   0.56238   0.01267  Uiso   1.00
O136   O     0.29287   0.33026   0.60120   0.01267  Uiso   1.00
O137   O     0.31452   0.39498   0.56540   0.01267  Uiso   1.00
O138   O     0.30502   0.46113   0.56293   0.01267  Uiso   1.00
O139   O     0.50747   0.36851   0.77942   0.01267  Uiso   1.00
O140   O     0.50805   0.46435   0.77032   0.01267  Uiso   1.00
O141   O     0.62995   0.17088   0.74695   0.01267  Uiso   1.00
O142   O     0.69536   0.17740   0.58067   0.01267  Uiso   1.00
O143   O     0.79792   0.17232   0.45851   0.01267  Uiso   1.00
O144   O     0.89890   0.17599   0.58263   0.01267  Uiso   1.00
O145   O     0.88574   0.16903   0.77645   0.01267  Uiso   1.00
O146   O     0.75894   0.16192   0.74429   0.01267  Uiso   1.00
O147   O     0.63329   0.06193   0.73624   0.01267  Uiso   1.00
O148   O     0.69438   0.06052   0.56704   0.01267  Uiso   1.00
O149   O     0.80741   0.06728   0.47204   0.01267  Uiso   1.00
O150   O     0.91397   0.05816   0.58062   0.01267  Uiso   1.00
O151   O     0.88829   0.06420   0.77189   0.01267  Uiso   1.00
O152   O     0.76260   0.07199   0.72994   0.01267  Uiso   1.00
O153   O     0.68112   0.11766   0.66085   0.01267  Uiso   1.00
O154   O     0.91818   0.11735   0.66377   0.01267  Uiso   1.00
O155   O     0.57650   0.20607   0.89077   0.01267  Uiso   1.00
O156   O     0.58714   0.14105   0.91195   0.01267  Uiso   1.00
O157   O     0.59671   0.07540   0.92044   0.01267  Uiso   1.00
O158   O     0.80281   0.20669   0.87318   0.01267  Uiso   1.00
O159   O     0.81100   0.14250   0.91490   0.01267  Uiso   1.00
O160   O     0.80297   0.07627   0.91615   0.01267  Uiso   1.00
O161   O     0.00258   0.16679   0.70030   0.01267  Uiso   1.00
O162   O     0.00943   0.07228   0.70643   0.01267  Uiso   1.00
O163   O     0.86869   0.11333   0.24932   0.01267  Uiso   1.00
O164   O     0.80316   0.10962   0.08264   0.01267  Uiso   1.00
O165   O     0.69958   0.11348   0.96247   0.01267  Uiso   1.00
O166   O     0.59737   0.10996   0.08385   0.01267  Uiso   1.00
O167   O     0.61257   0.11463   0.27768   0.01267  Uiso   1.00
O168   O     0.73967   0.12333   0.24729   0.01267  Uiso   1.00
O169   O     0.86641   0.22547   0.23460   0.01267  Uiso   1.00
O170   O     0.80742   0.22285   0.06357   0.01267  Uiso   1.00
O171   O     0.69292   0.21769   0.97244   0.01267  Uiso   1.00
O172   O     0.58415   0.22552   0.07760   0.01267  Uiso   1.00
O173   O     0.61126   0.22346   0.26892   0.01267  Uiso   1.00
O174   O     0.73714   0.21566   0.22679   0.01267  Uiso   1.00
O175   O     0.81946   0.16815   0.17057   0.01267  Uiso   1.00
O176   O     0.58366   0.16797   0.17119   0.01267  Uiso   1.00
O177   O     0.92460   0.08011   0.39588   0.01267  Uiso   1.00
O178   O     0.91109   0.14530   0.41053   0.01267  Uiso   1.00
O179   O     0.90076   0.21091   0.41937   0.01267  Uiso   1.00
O180   O     0.69622   0.07925   0.37885   0.01267  Uiso   1.00
O181   O     0.68484   0.14414   0.41376   0.01267  Uiso   1.00
O182   O     0.69592   0.21032   0.41299   0.01267  Uiso   1.00
O183   O     0.49501   0.12008   0.20313   0.01267  Uiso   1.00
O184   O     0.49020   0.21251   0.20714   0.01267  Uiso   1.00
O185   O     0.63629   0.36198   0.75197   0.01267  Uiso   1.00
O186   O     0.69186   0.36065   0.57663   0.01267  Uiso   1.00
O187   O     0.80081   0.36564   0.46938   0.01267  Uiso   1.00
O188   O     0.90921   0.35978   0.57833   0.01267  Uiso   1.00
O189   O     0.88950   0.36380   0.77212   0.01267  Uiso   1.00
O190   O     0.76431   0.37285   0.73367   0.01267  Uiso   1.00
O191   O     0.63199   0.47657   0.72558   0.01267  Uiso   1.00
O192   O     0.69289   0.47064   0.55655   0.01267  Uiso   1.00
O193   O     0.80821   0.46806   0.46648   0.01267  Uiso   1.00
O194   O     0.91554   0.47571   0.57439   0.01267  Uiso   1.00
O195   O     0.88737   0.47309   0.76511   0.01267  Uiso   1.00
O196   O     0.76160   0.46661   0.72174   0.01267  Uiso   1.00
O197   O     0.67952   0.41811   0.67271   0.01267  Uiso   1.00
O198   O     0.91698   0.41795   0.66689   0.01267  Uiso   1.00
O199   O     0.57637   0.32827   0.89186   0.01267  Uiso   1.00
O200   O     0.58955   0.39312   0.91219   0.01267  Uiso   1.00
O201   O     0.60110   0.45905   0.90930   0.01267  Uiso   1.00
O202   O     0.80228   0.32788   0.86699   0.01267  Uiso   1.00
O203   O     0.81368   0.39236   0.90619   0.01267  Uiso   1.00
O204   O     0.80289   0.45859   0.90743   0.01267  Uiso   1.00
O205   O     0.00794   0.37168   0.70274   0.01267  Uiso   1.00
O206   O     0.00883   0.46330   0.70492   0.01267  Uiso   1.00
O207   O     0.86869   0.42272   0.24482   0.01267  Uiso   1.00
O208   O     0.80796   0.42519   0.07383   0.01267  Uiso   1.00
O209   O     0.70216   0.42071   0.95839   0.01267  Uiso   1.00
O210   O     0.59976   0.42713   0.07829   0.01267  Uiso   1.00
O211   O     0.61371   0.41987   0.27190   0.01267  Uiso   1.00
O212   O     0.73985   0.41222   0.23507   0.01267  Uiso   1.00
O213   O     0.86522   0.30900   0.23048   0.01267  Uiso   1.00
O214   O     0.80889   0.31336   0.05811   0.01267  Uiso   1.00
O215   O     0.69361   0.31710   0.96971   0.01267  Uiso   1.00
O216   O     0.58761   0.30838   0.07952   0.01267  Uiso   1.00
O217   O     0.61303   0.31580   0.27075   0.01267  Uiso   1.00
O218   O     0.73733   0.32090   0.22065   0.01267  Uiso   1.00
O219   O     0.82283   0.36735   0.16688   0.01267  Uiso   1.00
O220   O     0.58270   0.36810   0.15932   0.01267  Uiso   1.00
O221   O     0.92530   0.45696   0.38740   0.01267  Uiso   1.00
O222   O     0.91190   0.39189   0.40802   0.01267  Uiso   1.00
O223   O     0.89854   0.32625   0.41360   0.01267  Uiso   1.00
O224   O     0.69916   0.45755   0.36480   0.01267  Uiso   1.00
O225   O     0.69060   0.39344   0.40812   0.01267  Uiso   1.00
O226   O     0.70191   0.32742   0.41007   0.01267  Uiso   1.00
O227   O     0.49643   0.41651   0.19575   0.01267  Uiso   1.00
O228   O     0.49250   0.32245   0.20654   0.01267  Uiso   1.00
O229   O     0.36770   0.11323   0.23393   0.01267  Uiso   1.00
O230   O     0.30374   0.11074   0.40197   0.01267  Uiso   1.00
O231   O     0.20088   0.11708   0.52234   0.01267  Uiso   1.00
O232   O     0.09856   0.10944   0.40243   0.01267  Uiso   1.00
O233   O     0.11303   0.11572   0.20865   0.01267  Uiso   1.00
O234   O     0.23934   0.12570   0.23862   0.01267  Uiso   1.00
O235   O     0.36691   0.22690   0.25123   0.01267  Uiso   1.00
O236   O     0.30443   0.22330   0.41914   0.01267  Uiso   1.00
O237   O     0.19045   0.21872   0.51396   0.01267  Uiso   1.00
O238   O     0.08609   0.22756   0.40071   0.01267  Uiso   1.00
O239   O     0.11193   0.22094   0.21006   0.01267  Uiso   1.00
O240   O     0.23788   0.21478   0.25342   0.01267  Uiso   1.00
O241   O     0.32272   0.16889   0.31315   0.01267  Uiso   1.00
O242   O     0.08209   0.16809   0.31947   0.01267  Uiso   1.00
O243   O     0.42617   0.07924   0.09178   0.01267  Uiso   1.00
O244   O     0.41206   0.14435   0.07219   0.01267  Uiso   1.00
O245   O     0.39810   0.20994   0.06684   0.01267  Uiso   1.00
O246   O     0.19880   0.07908   0.11326   0.01267  Uiso   1.00
O247   O     0.18495   0.14294   0.06783   0.01267  Uiso   1.00
O248   O     0.19770   0.20915   0.06691   0.01267  Uiso   1.00
O249   O     0.99557   0.11967   0.28407   0.01267  Uiso   1.00
O250   O     0.99064   0.21323   0.27549   0.01267  Uiso   1.00
O251   O     0.12987   0.17359   0.73237   0.01267  Uiso   1.00
O252   O     0.19497   0.17601   0.90039   0.01267  Uiso   1.00
O253   O     0.29828   0.17023   0.02111   0.01267  Uiso   1.00
O254   O     0.40117   0.17592   0.90174   0.01267  Uiso   1.00
O255   O     0.38573   0.17202   0.70822   0.01267  Uiso   1.00
O256   O     0.25859   0.16274   0.73600   0.01267  Uiso   1.00
O257   O     0.13251   0.05932   0.75403   0.01267  Uiso   1.00
O258   O     0.19403   0.06492   0.92267   0.01267  Uiso   1.00
O259   O     0.30893   0.06818   0.01430   0.01267  Uiso   1.00
O260   O     0.41508   0.06025   0.90471   0.01267  Uiso   1.00
O261   O     0.38665   0.06305   0.71360   0.01267  Uiso   1.00
O262   O     0.26152   0.07160   0.75715   0.01267  Uiso   1.00
O263   O     0.17658   0.11810   0.80961   0.01267  Uiso   1.00
O264   O     0.41584   0.11797   0.81223   0.01267  Uiso   1.00
O265   O     0.07225   0.20637   0.58641   0.01267  Uiso   1.00
O266   O     0.08567   0.14125   0.57225   0.01267  Uiso   1.00
O267   O     0.10339   0.07599   0.56865   0.01267  Uiso   1.00
O268   O     0.30180   0.20924   0.61116   0.01267  Uiso   1.00
O269   O     0.31375   0.14554   0.56587   0.01267  Uiso   1.00
O270   O     0.30285   0.07947   0.57175   0.01267  Uiso   1.00
O271   O     0.50344   0.16620   0.78252   0.01267  Uiso   1.00
O272   O     0.50842   0.07259   0.77481   0.01267  Uiso   1.00
O273   O     0.43502   0.26769   0.13888   0.01267  Uiso   1.00
O274   O     0.19705   0.26754   0.15226   0.01267  Uiso   1.00
O275   O     0.27233   0.26909   0.54959   0.01267  Uiso   1.00
O276   O     0.10560   0.26817   0.54902   0.01267  Uiso   1.00
O277   O     0.06807   0.01789   0.63779   0.01267  Uiso   1.00
O278   O     0.29691   0.01990   0.64732   0.01267  Uiso   1.00
O279   O     0.22613   0.01866   0.05488   0.01267  Uiso   1.00
O280   O     0.39210   0.01783   0.04875   0.01267  Uiso   1.00
O281   O     0.56770   0.01782   0.84253   0.01267  Uiso   1.00
O282   O     0.80205   0.01817   0.82842   0.01267  Uiso   1.00
O283   O     0.72512   0.01769   0.42697   0.01267  Uiso   1.00
O284   O     0.89119   0.01814   0.43093   0.01267  Uiso   1.00
O285   O     0.93393   0.26836   0.34264   0.01267  Uiso   1.00
O286   O     0.69731   0.26887   0.32736   0.01267  Uiso   1.00
O287   O     0.77559   0.26736   0.92743   0.01267  Uiso   1.00
O288   O     0.61028   0.26726   0.93250   0.01267  Uiso   1.00
Si289  Si    0.42535   0.92128   0.14370   0.01267  Uiso   1.00
Si290  Si    0.30924   0.90806   0.29141   0.01267  Uiso   1.00
Si291  Si    0.28159   0.92710   0.51020   0.01267  Uiso   1.00
Si292  Si    0.12310   0.92570   0.51212   0.01267  Uiso   1.00
Si293  Si    0.07227   0.90771   0.29879   0.01267  Uiso   1.00
Si294  Si    0.18452   0.92135   0.15219   0.01267  Uiso   1.00
Si295  Si    0.42448   0.80669   0.16374   0.01267  Uiso   1.00
Si296  Si    0.30780   0.82893   0.30250   0.01267  Uiso   1.00
Si297  Si    0.26339   0.80715   0.51371   0.01267  Uiso   1.00
Si298  Si    0.11044   0.80649   0.51309   0.01267  Uiso   1.00
Si299  Si    0.06447   0.82880   0.30167   0.01267  Uiso   1.00
Si300  Si    0.18409   0.80668   0.17190   0.01267  Uiso   1.00
Si301  Si    0.07890   0.86534   0.65207   0.01267  Uiso   1.00
Si302  Si    0.19588   0.88015   0.79981   0.01267  Uiso   1.00
Si303  Si    0.21848   0.86025   0.01936   0.01267  Uiso   1.00
Si304  Si    0.37503   0.85948   0.01526   0.01267  Uiso   1.00
Si305  Si    0.31054   0.86600   0.64684   0.01267  Uiso   1.00
Si306  Si    0.07722   0.97890   0.66338   0.01267  Uiso   1.00
Si307  Si    0.19468   0.95893   0.80641   0.01267  Uiso   1.00
Si308  Si    0.23210   0.98025   0.02003   0.01267  Uiso   1.00
Si309  Si    0.38544   0.97991   0.00856   0.01267  Uiso   1.00
Si310  Si    0.42993   0.95927   0.79346   0.01267  Uiso   1.00
Si311  Si    0.31367   0.98103   0.66682   0.01267  Uiso   1.00
Si312  Si    0.57491   0.67079   0.83312   0.01267  Uiso   1.00
Si313  Si    0.69128   0.65684   0.68359   0.01267  Uiso   1.00
Si314  Si    0.71866   0.67605   0.46629   0.01267  Uiso   1.00
Si315  Si    0.87687   0.67605   0.46799   0.01267  Uiso   1.00
Si316  Si    0.92641   0.65708   0.68015   0.01267  Uiso   1.00
Si317  Si    0.81379   0.66997   0.82736   0.01267  Uiso   1.00
Si318  Si    0.57632   0.55689   0.81829   0.01267  Uiso   1.00
Si319  Si    0.69297   0.57811   0.67431   0.01267  Uiso   1.00
Si320  Si    0.73078   0.55613   0.46140   0.01267  Uiso   1.00
Si321  Si    0.88420   0.55604   0.46996   0.01267  Uiso   1.00
Si322  Si    0.93233   0.57813   0.68077   0.01267  Uiso   1.00
Si323  Si    0.81389   0.55754   0.81128   0.01267  Uiso   1.00
Si324  Si    0.92412   0.61478   0.33488   0.01267  Uiso   1.00
Si325  Si    0.80769   0.62873   0.18766   0.01267  Uiso   1.00
Si326  Si    0.77888   0.61037   0.96887   0.01267  Uiso   1.00
Si327  Si    0.62048   0.61004   0.96975   0.01267  Uiso   1.00
Si328  Si    0.57191   0.62828   0.18338   0.01267  Uiso   1.00
Si329  Si    0.68416   0.61539   0.32973   0.01267  Uiso   1.00
Si330  Si    0.92287   0.72941   0.31785   0.01267  Uiso   1.00
Si331  Si    0.80734   0.70787   0.17446   0.01267  Uiso   1.00
Si332  Si    0.76955   0.72870   0.95969   0.01267  Uiso   1.00
Si333  Si    0.61611   0.72900   0.96867   0.01267  Uiso   1.00
Si334  Si    0.56747   0.70719   0.18115   0.01267  Uiso   1.00
Si335  Si    0.68563   0.72954   0.30875   0.01267  Uiso   1.00
Si336  Si    0.57668   0.86358   0.83232   0.01267  Uiso   1.00
Si337  Si    0.69263   0.87858   0.68421   0.01267  Uiso   1.00
Si338  Si    0.72155   0.86182   0.46562   0.01267  Uiso   1.00
Si339  Si    0.87977   0.86093   0.46745   0.01267  Uiso   1.00
Si340  Si    0.93081   0.87844   0.67953   0.01267  Uiso   1.00
Si341  Si    0.81650   0.86429   0.82034   0.01267  Uiso   1.00
Si342  Si    0.57675   0.97916   0.81183   0.01267  Uiso   1.00
Si343  Si    0.69168   0.95787   0.66984   0.01267  Uiso   1.00
Si344  Si    0.73131   0.97858   0.45443   0.01267  Uiso   1.00
Si345  Si    0.88481   0.97965   0.46501   0.01267  Uiso   1.00
Si346  Si    0.93201   0.95734   0.67771   0.01267  Uiso   1.00
Si347  Si    0.81311   0.97908   0.80548   0.01267  Uiso   1.00
Si348  Si    0.92463   0.92171   0.32960   0.01267  Uiso   1.00
Si349  Si    0.80973   0.90682   0.18021   0.01267  Uiso   1.00
Si350  Si    0.78133   0.92425   0.96114   0.01267  Uiso   1.00
Si351  Si    0.62309   0.92499   0.96406   0.01267  Uiso   1.00
Si352  Si    0.68643   0.92076   0.32016   0.01267  Uiso   1.00
Si353  Si    0.92164   0.80696   0.31421   0.01267  Uiso   1.00
Si354  Si    0.80825   0.82784   0.16930   0.01267  Uiso   1.00
Si355  Si    0.77008   0.80638   0.95573   0.01267  Uiso   1.00
Si356  Si    0.61697   0.80556   0.96858   0.01267  Uiso   1.00
Si357  Si    0.68774   0.80821   0.30683   0.01267  Uiso   1.00
Si358  Si    0.42456   0.61436   0.15024   0.01267  Uiso   1.00
Si359  Si    0.30836   0.62966   0.29660   0.01267  Uiso   1.00
Si360  Si    0.28011   0.61308   0.51591   0.01267  Uiso   1.00
Si361  Si    0.12238   0.61092   0.51626   0.01267  Uiso   1.00
Si362  Si    0.07217   0.62834   0.30413   0.01267  Uiso   1.00
Si363  Si    0.18476   0.61584   0.15675   0.01267  Uiso   1.00
Si364  Si    0.42264   0.72908   0.16584   0.01267  Uiso   1.00
Si365  Si    0.30761   0.70831   0.30838   0.01267  Uiso   1.00
Si366  Si    0.26708   0.72981   0.52288   0.01267  Uiso   1.00
Si367  Si    0.11357   0.73001   0.51243   0.01267  Uiso   1.00
Si368  Si    0.06765   0.70722   0.30122   0.01267  Uiso   1.00
Si369  Si    0.18614   0.72817   0.17102   0.01267  Uiso   1.00
Si370  Si    0.07346   0.67177   0.64812   0.01267  Uiso   1.00
Si371  Si    0.18999   0.65746   0.79448   0.01267  Uiso   1.00
Si372  Si    0.21917   0.67462   0.01419   0.01267  Uiso   1.00
Si373  Si    0.37719   0.67509   0.01549   0.01267  Uiso   1.00
Si374  Si    0.31439   0.67228   0.65551   0.01267  Uiso   1.00
Si375  Si    0.07824   0.55654   0.66690   0.01267  Uiso   1.00
Si376  Si    0.19142   0.57853   0.81047   0.01267  Uiso   1.00
Si377  Si    0.23209   0.55758   0.02550   0.01267  Uiso   1.00
Si378  Si    0.38550   0.55631   0.01483   0.01267  Uiso   1.00
Si379  Si    0.43146   0.57861   0.80132   0.01267  Uiso   1.00
Si380  Si    0.31213   0.55846   0.67288   0.01267  Uiso   1.00
Si381  Si    0.57297   0.90782   0.17554   0.01267  Uiso   1.00
Si382  Si    0.56906   0.82900   0.17831   0.01267  Uiso   1.00
Si383  Si    0.42663   0.65776   0.80176   0.01267  Uiso   1.00
Al384  Al    0.42745   0.87948   0.80295   0.01267  Uiso   1.00
O385   O     0.36971   0.92357   0.22939   0.01267  Uiso   1.00
O386   O     0.30613   0.92717   0.39681   0.01267  Uiso   1.00
O387   O     0.20249   0.92310   0.51673   0.01267  Uiso   1.00
O388   O     0.09772   0.92535   0.39936   0.01267  Uiso   1.00
O389   O     0.11347   0.92205   0.20601   0.01267  Uiso   1.00
O390   O     0.24043   0.91357   0.23411   0.01267  Uiso   1.00
O391   O     0.36869   0.81071   0.24867   0.01267  Uiso   1.00
O392   O     0.30435   0.81354   0.41330   0.01267  Uiso   1.00
O393   O     0.18711   0.81694   0.49650   0.01267  Uiso   1.00
O394   O     0.07281   0.81151   0.40923   0.01267  Uiso   1.00
O395   O     0.11179   0.81116   0.22095   0.01267  Uiso   1.00
O396   O     0.23881   0.82155   0.24720   0.01267  Uiso   1.00
O397   O     0.32053   0.86854   0.30916   0.01267  Uiso   1.00
O398   O     0.08294   0.86786   0.30896   0.01267  Uiso   1.00
O399   O     0.42656   0.95572   0.08139   0.01267  Uiso   1.00
O400   O     0.41154   0.89029   0.07080   0.01267  Uiso   1.00
O401   O     0.40228   0.82493   0.06299   0.01267  Uiso   1.00
O402   O     0.19615   0.95736   0.10202   0.01267  Uiso   1.00
O403   O     0.18382   0.89267   0.06804   0.01267  Uiso   1.00
O404   O     0.18828   0.82642   0.06744   0.01267  Uiso   1.00
O405   O     0.99570   0.91625   0.27841   0.01267  Uiso   1.00
O406   O     0.98826   0.82365   0.26922   0.01267  Uiso   1.00
O407   O     0.13541   0.86515   0.73636   0.01267  Uiso   1.00
O408   O     0.20211   0.85972   0.90206   0.01267  Uiso   1.00
O409   O     0.29666   0.86215   0.04027   0.01267  Uiso   1.00
O410   O     0.38918   0.85985   0.89986   0.01267  Uiso   1.00
O411   O     0.38685   0.86033   0.69235   0.01267  Uiso   1.00
O412   O     0.26419   0.87589   0.73785   0.01267  Uiso   1.00
O413   O     0.13297   0.97432   0.74715   0.01267  Uiso   1.00
O414   O     0.19647   0.97645   0.91360   0.01267  Uiso   1.00
O415   O     0.30839   0.96876   0.01027   0.01267  Uiso   1.00
O416   O     0.41383   0.97805   0.89752   0.01267  Uiso   1.00
O417   O     0.38844   0.97806   0.70641   0.01267  Uiso   1.00
O418   O     0.26285   0.96565   0.74772   0.01267  Uiso   1.00
O419   O     0.18442   0.91923   0.82058   0.01267  Uiso   1.00
O420   O     0.40964   0.92097   0.79648   0.01267  Uiso   1.00
O421   O     0.07797   0.82943   0.59793   0.01267  Uiso   1.00
O422   O     0.09282   0.89408   0.57072   0.01267  Uiso   1.00
O423   O     0.09905   0.96011   0.56238   0.01267  Uiso   1.00
O424   O     0.29287   0.83026   0.60120   0.01267  Uiso   1.00
O425   O     0.31452   0.89498   0.56540   0.01267  Uiso   1.00
O426   O     0.30502   0.96113   0.56293   0.01267  Uiso   1.00
O427   O     0.50747   0.86851   0.77942   0.01267  Uiso   1.00
O428   O     0.50805   0.96435   0.77032   0.01267  Uiso   1.00
O429   O     0.62995   0.67088   0.74695   0.01267  Uiso   1.00
O430   O     0.69536   0.67740   0.58067   0.01267  Uiso   1.00
O431   O     0.79792   0.67232   0.45851   0.01267  Uiso   1.00
O432   O     0.89890   0.67599   0.58263   0.01267  Uiso   1.00
O433   O     0.88574   0.66903   0.77645   0.01267  Uiso   1.00
O434   O     0.75894   0.66192   0.74429   0.01267  Uiso   1.00
O435   O     0.63329   0.56193   0.73624   0.01267  Uiso   1.00
O436   O     0.69438   0.56052   0.56704   0.01267  Uiso   1.00
O437   O     0.80741   0.56728   0.47204   0.01267  Uiso   1.00
O438   O     0.91397   0.55816   0.58062   0.01267  Uiso   1.00
O439   O     0.88829   0.56420   0.77189   0.01267  Uiso   1.00
O440   O     0.76260   0.57199   0.72994   0.01267  Uiso   1.00
O441   O     0.68112   0.61766   0.66085   0.01267  Uiso   1.00
O442   O     0.91818   0.61735   0.66377   0.01267  Uiso   1.00
O443   O     0.57650   0.70607   0.89077   0.01267  Uiso   1.00
O444   O     0.58714   0.64105   0.91195   0.01267  Uiso   1.00
O445   O     0.59671   0.57540   0.92044   0.01267  Uiso   1.00
O446   O     0.80281   0.70669   0.87318   0.01267  Uiso   1.00
O447   O     0.81100   0.64250   0.91490   0.01267  Uiso   1.00
O448   O     0.80297   0.57627   0.91615   0.01267  Uiso   1.00
O449   O     0.00258   0.66679   0.70030   0.01267  Uiso   1.00
O450   O     0.00943   0.57228   0.70643   0.01267  Uiso   1.00
O451   O     0.86869   0.61333   0.24932   0.01267  Uiso   1.00
O452   O     0.80316   0.60962   0.08264   0.01267  Uiso   1.00
O453   O     0.69958   0.61348   0.96247   0.01267  Uiso   1.00
O454   O     0.59737   0.60996   0.08385   0.01267  Uiso   1.00
O455   O     0.61257   0.61463   0.27768   0.01267  Uiso   1.00
O456   O     0.73967   0.62333   0.24729   0.01267  Uiso   1.00
O457   O     0.86641   0.72547   0.23460   0.01267  Uiso   1.00
O458   O     0.80742   0.72285   0.06357   0.01267  Uiso   1.00
O459   O     0.69292   0.71769   0.97244   0.01267  Uiso   1.00
O460   O     0.58415   0.72552   0.07760   0.01267  Uiso   1.00
O461   O     0.61126   0.72346   0.26892   0.01267  Uiso   1.00
O462   O     0.73714   0.71566   0.22679   0.01267  Uiso   1.00
O463   O     0.81946   0.66815   0.17057   0.01267  Uiso   1.00
O464   O     0.58366   0.66797   0.17119   0.01267  Uiso   1.00
O465   O     0.92460   0.58011   0.39588   0.01267  Uiso   1.00
O466   O     0.91109   0.64530   0.41053   0.01267  Uiso   1.00
O467   O     0.90076   0.71091   0.41937   0.01267  Uiso   1.00
O468   O     0.69622   0.57925   0.37885   0.01267  Uiso   1.00
O469   O     0.68484   0.64414   0.41376   0.01267  Uiso   1.00
O470   O     0.69592   0.71032   0.41299   0.01267  Uiso   1.00
O471   O     0.49501   0.62008   0.20313   0.01267  Uiso   1.00
O472   O     0.49020   0.71251   0.20714   0.01267  Uiso   1.00
O473   O     0.63629   0.86198   0.75197   0.01267  Uiso   1.00
O474   O     0.69186   0.86065   0.57663   0.01267  Uiso   1.00
O475   O     0.80081   0.86564   0.46938   0.01267  Uiso   1.00
O476   O     0.90921   0.85978   0.57833   0.01267  Uiso   1.00
O477   O     0.88950   0.86380   0.77212   0.01267  Uiso   1.00
O478   O     0.76431   0.87285   0.73367   0.01267  Uiso   1.00
O479   O     0.63199   0.97657   0.72558   0.01267  Uiso   1.00
O480   O     0.69289   0.97064   0.55655   0.01267  Uiso   1.00
O481   O     0.80821   0.96806   0.46648   0.01267  Uiso   1.00
O482   O     0.91554   0.97571   0.57439   0.01267  Uiso   1.00
O483   O     0.88737   0.97309   0.76511   0.01267  Uiso   1.00
O484   O     0.76160   0.96661   0.72174   0.01267  Uiso   1.00
O485   O     0.67952   0.91811   0.67271   0.01267  Uiso   1.00
O486   O     0.91698   0.91795   0.66689   0.01267  Uiso   1.00
O487   O     0.57637   0.82827   0.89186   0.01267  Uiso   1.00
O488   O     0.58955   0.89312   0.91219   0.01267  Uiso   1.00
O489   O     0.60110   0.95905   0.90930   0.01267  Uiso   1.00
O490   O     0.80228   0.82788   0.86699   0.01267  Uiso   1.00
O491   O     0.81368   0.89236   0.90619   0.01267  Uiso   1.00
O492   O     0.80289   0.95859   0.90743   0.01267  Uiso   1.00
O493   O     0.00794   0.87168   0.70274   0.01267  Uiso   1.00
O494   O     0.00883   0.96330   0.70492   0.01267  Uiso   1.00
O495   O     0.86869   0.92272   0.24482   0.01267  Uiso   1.00
O496   O     0.80796   0.92519   0.07383   0.01267  Uiso   1.00
O497   O     0.70216   0.92071   0.95839   0.01267  Uiso   1.00
O498   O     0.59976   0.92713   0.07829   0.01267  Uiso   1.00
O499   O     0.61371   0.91987   0.27190   0.01267  Uiso   1.00
O500   O     0.73985   0.91222   0.23507   0.01267  Uiso   1.00
O501   O     0.86522   0.80900   0.23048   0.01267  Uiso   1.00
O502   O     0.80889   0.81336   0.05811   0.01267  Uiso   1.00
O503   O     0.69361   0.81710   0.96971   0.01267  Uiso   1.00
O504   O     0.58761   0.80838   0.07952   0.01267  Uiso   1.00
O505   O     0.61303   0.81580   0.27075   0.01267  Uiso   1.00
O506   O     0.73733   0.82090   0.22065   0.01267  Uiso   1.00
O507   O     0.82283   0.86735   0.16688   0.01267  Uiso   1.00
O508   O     0.58270   0.86810   0.15932   0.01267  Uiso   1.00
O509   O     0.92530   0.95696   0.38740   0.01267  Uiso   1.00
O510   O     0.91190   0.89189   0.40802   0.01267  Uiso   1.00
O511   O     0.89854   0.82625   0.41360   0.01267  Uiso   1.00
O512   O     0.69916   0.95755   0.36480   0.01267  Uiso   1.00
O513   O     0.69060   0.89344   0.40812   0.01267  Uiso   1.00
O514   O     0.70191   0.82742   0.41007   0.01267  Uiso   1.00
O515   O     0.49643   0.91651   0.19575   0.01267  Uiso   1.00
O516   O     0.49250   0.82245   0.20654   0.01267  Uiso   1.00
O517   O     0.36770   0.61323   0.23393   0.01267  Uiso   1.00
O518   O     0.30374   0.61074   0.40197   0.01267  Uiso   1.00
O519   O     0.20088   0.61708   0.52234   0.01267  Uiso   1.00
O520   O     0.09856   0.60944   0.40243   0.01267  Uiso   1.00
O521   O     0.11303   0.61572   0.20865   0.01267  Uiso   1.00
O522   O     0.23934   0.62570   0.23862   0.01267  Uiso   1.00
O523   O     0.36691   0.72690   0.25123   0.01267  Uiso   1.00
O524   O     0.30443   0.72330   0.41914   0.01267  Uiso   1.00
O525   O     0.19045   0.71872   0.51396   0.01267  Uiso   1.00
O526   O     0.08609   0.72756   0.40071   0.01267  Uiso   1.00
O527   O     0.11193   0.72094   0.21006   0.01267  Uiso   1.00
O528   O     0.23788   0.71478   0.25342   0.01267  Uiso   1.00
O529   O     0.32272   0.66889   0.31315   0.01267  Uiso   1.00
O530   O     0.08209   0.66809   0.31947   0.01267  Uiso   1.00
O531   O     0.42617   0.57924   0.09178   0.01267  Uiso   1.00
O532   O     0.41206   0.64435   0.07219   0.01267  Uiso   1.00
O533   O     0.39810   0.70994   0.06684   0.01267  Uiso   1.00
O534   O     0.19880   0.57908   0.11326   0.01267  Uiso   1.00
O535   O     0.18495   0.64294   0.06783   0.01267  Uiso   1.00
O536   O     0.19770   0.70915   0.06691   0.01267  Uiso   1.00
O537   O     0.99557   0.61967   0.28407   0.01267  Uiso   1.00
O538   O     0.99064   0.71323   0.27549   0.01267  Uiso   1.00
O539   O     0.12987   0.67359   0.73237   0.01267  Uiso   1.00
O540   O     0.19497   0.67601   0.90039   0.01267  Uiso   1.00
O541   O     0.29828   0.67023   0.02111   0.01267  Uiso   1.00
O542   O     0.40117   0.67592   0.90174   0.01267  Uiso   1.00
O543   O     0.38573   0.67202   0.70822   0.01267  Uiso   1.00
O544   O     0.25859   0.66274   0.73600   0.01267  Uiso   1.00
O545   O     0.13251   0.55932   0.75403   0.01267  Uiso   1.00
O546   O     0.19403   0.56492   0.92267   0.01267  Uiso   1.00
O547   O     0.30893   0.56818   0.01430   0.01267  Uiso   1.00
O548   O     0.41508   0.56025   0.90471   0.01267  Uiso   1.00
O549   O     0.38665   0.56305   0.71360   0.01267  Uiso   1.00
O550   O     0.26152   0.57160   0.75715   0.01267  Uiso   1.00
O551   O     0.17658   0.61810   0.80961   0.01267  Uiso   1.00
O552   O     0.41584   0.61797   0.81223   0.01267  Uiso   1.00
O553   O     0.07225   0.70637   0.58641   0.01267  Uiso   1.00
O554   O     0.08567   0.64125   0.57225   0.01267  Uiso   1.00
O555   O     0.10339   0.57599   0.56865   0.01267  Uiso   1.00
O556   O     0.30180   0.70924   0.61116   0.01267  Uiso   1.00
O557   O     0.31375   0.64554   0.56587   0.01267  Uiso   1.00
O558   O     0.30285   0.57947   0.57175   0.01267  Uiso   1.00
O559   O     0.50344   0.66620   0.78252   0.01267  Uiso   1.00
O560   O     0.50842   0.57259   0.77480   0.01267  Uiso   1.00
O561   O     0.43502   0.76769   0.13888   0.01267  Uiso   1.00
O562   O     0.19705   0.76754   0.15226   0.01267  Uiso   1.00
O563   O     0.27233   0.76909   0.54959   0.01267  Uiso   1.00
O564   O     0.10560   0.76817   0.54902   0.01267  Uiso   1.00
O565   O     0.06807   0.51789   0.63779   0.01267  Uiso   1.00
O566   O     0.29691   0.51990   0.64732   0.01267  Uiso   1.00
O567   O     0.22613   0.51866   0.05488   0.01267  Uiso   1.00
O568   O     0.39210   0.51783   0.04875   0.01267  Uiso   1.00
O569   O     0.56770   0.51782   0.84253   0.01267  Uiso   1.00
O570   O     0.80205   0.51817   0.82842   0.01267  Uiso   1.00
O571   O     0.72512   0.51769   0.42697   0.01267  Uiso   1.00
O572   O     0.89119   0.51814   0.43093   0.01267  Uiso   1.00
O573   O     0.93393   0.76836   0.34264   0.01267  Uiso   1.00
O574   O     0.69731   0.76887   0.32736   0.01267  Uiso   1.00
O575   O     0.77559   0.76736   0.92743   0.01267  Uiso   1.00
O576   O     0.61028   0.76726   0.93250   0.01267  Uiso   1.00
H577   H     0.40912   0.83948   0.66960   0.01267  Uiso   1.00
H578   H     0.61325   0.80266   0.54107   0.01267  Uiso   1.00
H579   H     0.55608   0.79758   0.71604   0.01267  Uiso   1.00
H580   H     0.52677   0.79655   0.39674   0.01267  Uiso   1.00
H581   H     0.40708   0.78705   0.46575   0.01267  Uiso   1.00
C582   C     0.51432   0.79529   0.47465   0.01267  Uiso   1.00
C583   C     0.45160   0.79053   0.50829   0.01267  Uiso   1.00
C584   C     0.56102   0.79849   0.55254   0.01267  Uiso   1.00
C585   C     0.53299   0.79616   0.64411   0.01267  Uiso   1.00
S586   S     0.44956   0.78959   0.63550   0.01267  Uiso   1.00
loop_
_geom_bond_atom_site_label_1
_geom_bond_atom_site_label_2
_geom_bond_distance
_geom_bond_site_symmetry_2
_ccdc_geom_bond_type
Si1    O97     1.626   .     S
Si1    O111    1.626   .     S
Si1    O112    1.620   .     S
Si1    O227    1.624   .     S
Si2    O97     1.617   .     S
Si2    O98     1.627   .     S
Si2    O102    1.620   .     S
Si2    O109    1.628   .     S
Si3    O98     1.618   .     S
Si3    O99     1.623   .     S
Si3    O137    1.640   .     S
Si3    O138    1.621   .     S
Si4    O99     1.623   .     S
Si4    O100    1.616   .     S
Si4    O134    1.624   .     S
Si4    O135    1.623   .     S
Si5    O100    1.625   .     S
Si5    O101    1.619   .     S
Si5    O110    1.628   .     S
Si5    O117    1.622   1_455 S
Si6    O101    1.622   .     S
Si6    O102    1.623   .     S
Si6    O114    1.621   .     S
Si6    O115    1.626   .     S
Si7    O103    1.627   .     S
Si7    O113    1.617   .     S
Si7    O228    1.633   .     S
Si7    O273    1.623   .     S
Si8    O103    1.617   .     S
Si8    O104    1.628   .     S
Si8    O108    1.622   .     S
Si8    O109    1.621   .     S
Si9    O104    1.618   .     S
Si9    O105    1.621   .     S
Si9    O136    1.626   .     S
Si9    O275    1.620   .     S
Si10   O105    1.634   .     S
Si10   O106    1.618   .     S
Si10   O133    1.619   .     S
Si10   O276    1.623   .     S
Si11   O106    1.627   .     S
Si11   O107    1.624   .     S
Si11   O110    1.622   .     S
Si11   O118    1.628   1_455 S
Si12   O107    1.627   .     S
Si12   O108    1.628   .     S
Si12   O116    1.628   .     S
Si12   O274    1.623   .     S
Si13   O119    1.624   .     S
Si13   O133    1.625   .     S
Si13   O134    1.625   .     S
Si13   O205    1.621   .     S
Si14   O119    1.622   .     S
Si14   O120    1.619   .     S
Si14   O124    1.635   .     S
Si14   O131    1.618   .     S
Si15   O115    1.627   .     S
Si15   O116    1.632   .     S
Si15   O120    1.627   1_554 S
Si15   O121    1.620   .     S
Si16   O112    1.633   .     S
Si16   O113    1.634   .     S
Si16   O121    1.636   .     S
Si16   O122    1.592   1_554 S
Si17   O123    1.690   .     S
Si17   O124    1.605   .     S
Si17   O136    1.610   .     S
Si17   O137    1.610   .     S
Si18   O125    1.619   .     S
Si18   O135    1.629   .     S
Si18   O206    1.629   .     S
Si18   O565    1.621   .     S
Si19   O125    1.617   .     S
Si19   O126    1.619   .     S
Si19   O130    1.624   .     S
Si19   O131    1.626   .     S
Si20   O114    1.620   .     S
Si20   O126    1.625   1_554 S
Si20   O127    1.628   .     S
Si20   O567    1.625   .     S
Si21   O111    1.622   .     S
Si21   O127    1.633   .     S
Si21   O128    1.616   1_554 S
Si21   O568    1.630   .     S
Si22   O128    1.636   .     S
Si22   O129    1.639   .     S
Si22   O132    1.600   .     S
Si22   O140    1.636   .     S
Si23   O129    1.621   .     S
Si23   O130    1.631   .     S
Si23   O138    1.633   .     S
Si23   O566    1.626   .     S
Si24   O141    1.620   .     S
Si24   O155    1.625   .     S
Si24   O156    1.626   .     S
Si24   O271    1.622   .     S
Si25   O141    1.619   .     S
Si25   O142    1.626   .     S
Si25   O146    1.620   .     S
Si25   O153    1.624   .     S
Si26   O142    1.624   .     S
Si26   O143    1.626   .     S
Si26   O181    1.626   .     S
Si26   O182    1.627   .     S
Si27   O143    1.621   .     S
Si27   O144    1.620   .     S
Si27   O178    1.623   .     S
Si27   O179    1.627   .     S
Si28   O144    1.627   .     S
Si28   O145    1.621   .     S
Si28   O154    1.627   .     S
Si28   O161    1.624   1_655 S
Si29   O145    1.621   .     S
Si29   O146    1.622   .     S
Si29   O158    1.622   .     S
Si29   O159    1.625   .     S
Si30   O147    1.621   .     S
Si30   O157    1.630   .     S
Si30   O272    1.633   .     S
Si30   O281    1.619   .     S
Si31   O147    1.615   .     S
Si31   O148    1.621   .     S
Si31   O152    1.627   .     S
Si31   O153    1.623   .     S
Si32   O148    1.624   .     S
Si32   O149    1.632   .     S
Si32   O180    1.619   .     S
Si32   O283    1.624   .     S
Si33   O149    1.630   .     S
Si33   O150    1.623   .     S
Si33   O177    1.621   .     S
Si33   O284    1.624   .     S
Si34   O150    1.625   .     S
Si34   O151    1.627   .     S
Si34   O154    1.624   .     S
Si34   O162    1.627   1_655 S
Si35   O151    1.630   .     S
Si35   O152    1.629   .     S
Si35   O160    1.627   .     S
Si35   O282    1.623   .     S
Si36   O163    1.622   .     S
Si36   O177    1.625   .     S
Si36   O178    1.625   .     S
Si36   O249    1.623   .     S
Si37   O163    1.623   .     S
Si37   O164    1.624   .     S
Si37   O168    1.619   .     S
Si37   O175    1.624   .     S
Si38   O159    1.625   .     S
Si38   O160    1.627   .     S
Si38   O164    1.622   1_556 S
Si38   O165    1.624   .     S
Si39   O156    1.625   .     S
Si39   O157    1.624   .     S
Si39   O165    1.621   .     S
Si39   O166    1.618   1_556 S
Si40   O166    1.625   .     S
Si40   O167    1.622   .     S
Si40   O176    1.627   .     S
Si40   O183    1.624   .     S
Si41   O167    1.622   .     S
Si41   O168    1.622   .     S
Si41   O180    1.621   .     S
Si41   O181    1.627   .     S
Si42   O169    1.621   .     S
Si42   O179    1.630   .     S
Si42   O250    1.632   .     S
Si42   O285    1.623   .     S
Si43   O169    1.619   .     S
Si43   O170    1.621   .     S
Si43   O174    1.628   .     S
Si43   O175    1.622   .     S
Si44   O158    1.621   .     S
Si44   O170    1.625   1_556 S
Si44   O171    1.633   .     S
Si44   O287    1.624   .     S
Si45   O155    1.621   .     S
Si45   O171    1.632   .     S
Si45   O172    1.621   1_556 S
Si45   O288    1.623   .     S
Si46   O172    1.623   .     S
Si46   O173    1.628   .     S
Si46   O176    1.622   .     S
Si46   O184    1.628   .     S
Si47   O173    1.628   .     S
Si47   O174    1.629   .     S
Si47   O182    1.626   .     S
Si47   O286    1.624   .     S
Si48   O139    1.596   .     S
Si48   O185    1.633   .     S
Si48   O199    1.637   .     S
Si48   O200    1.633   .     S
Si49   O185    1.615   .     S
Si49   O186    1.630   .     S
Si49   O190    1.625   .     S
Si49   O197    1.624   .     S
Si50   O186    1.624   .     S
Si50   O187    1.624   .     S
Si50   O225    1.623   .     S
Si50   O226    1.630   .     S
Si51   O187    1.621   .     S
Si51   O188    1.621   .     S
Si51   O222    1.623   .     S
Si51   O223    1.624   .     S
Si52   O188    1.628   .     S
Si52   O189    1.623   .     S
Si52   O198    1.627   .     S
Si52   O205    1.627   1_655 S
Si53   O189    1.625   .     S
Si53   O190    1.624   .     S
Si53   O202    1.624   .     S
Si53   O203    1.626   .     S
Si54   O140    1.624   .     S
Si54   O191    1.627   .     S
Si54   O201    1.629   .     S
Si54   O569    1.625   .     S
Si55   O191    1.619   .     S
Si55   O192    1.621   .     S
Si55   O196    1.629   .     S
Si55   O197    1.623   .     S
Si56   O192    1.623   .     S
Si56   O193    1.632   .     S
Si56   O224    1.622   .     S
Si56   O571    1.625   .     S
Si57   O193    1.630   .     S
Si57   O194    1.620   .     S
Si57   O221    1.621   .     S
Si57   O572    1.625   .     S
Si58   O194    1.621   .     S
Si58   O195    1.624   .     S
Si58   O198    1.625   .     S
Si58   O206    1.627   1_655 S
Si59   O195    1.627   .     S
Si59   O196    1.628   .     S
Si59   O204    1.624   .     S
Si59   O570    1.623   .     S
Si60   O117    1.621   .     S
Si60   O207    1.621   .     S
Si60   O221    1.624   .     S
Si60   O222    1.626   .     S
Si61   O207    1.621   .     S
Si61   O208    1.623   .     S
Si61   O212    1.621   .     S
Si61   O219    1.624   .     S
Si62   O203    1.627   .     S
Si62   O204    1.625   .     S
Si62   O208    1.624   1_556 S
Si62   O209    1.620   .     S
Si63   O200    1.618   .     S
Si63   O201    1.624   .     S
Si63   O209    1.623   .     S
Si63   O210    1.624   1_556 S
Si64   O211    1.621   .     S
Si64   O212    1.624   .     S
Si64   O224    1.624   .     S
Si64   O225    1.626   .     S
Si65   O118    1.633   .     S
Si65   O213    1.620   .     S
Si65   O223    1.627   .     S
Si65   O285    1.623   .     S
Si66   O213    1.618   .     S
Si66   O214    1.619   .     S
Si66   O218    1.628   .     S
Si66   O219    1.621   .     S
Si67   O202    1.622   .     S
Si67   O214    1.624   1_556 S
Si67   O215    1.628   .     S
Si67   O287    1.624   .     S
Si68   O199    1.615   .     S
Si68   O215    1.630   .     S
Si68   O216    1.624   1_556 S
Si68   O288    1.627   .     S
Si69   O217    1.629   .     S
Si69   O218    1.627   .     S
Si69   O226    1.628   .     S
Si69   O286    1.622   .     S
Si70   O183    1.622   .     S
Si70   O229    1.623   .     S
Si70   O243    1.625   .     S
Si70   O244    1.627   .     S
Si71   O229    1.620   .     S
Si71   O230    1.623   .     S
Si71   O234    1.621   .     S
Si71   O241    1.625   .     S
Si72   O230    1.622   .     S
Si72   O231    1.625   .     S
Si72   O269    1.627   .     S
Si72   O270    1.620   .     S
Si73   O231    1.621   .     S
Si73   O232    1.621   .     S
Si73   O266    1.623   .     S
Si73   O267    1.624   .     S
Si74   O232    1.628   .     S
Si74   O233    1.622   .     S
Si74   O242    1.629   .     S
Si74   O249    1.623   1_455 S
Si75   O233    1.622   .     S
Si75   O234    1.623   .     S
Si75   O246    1.622   .     S
Si75   O247    1.628   .     S
Si76   O184    1.630   .     S
Si76   O235    1.624   .     S
Si76   O245    1.629   .     S
Si76   O273    1.619   .     S
Si77   O235    1.619   .     S
Si77   O236    1.622   .     S
Si77   O240    1.627   .     S
Si77   O241    1.621   .     S
Si78   O236    1.622   .     S
Si78   O237    1.629   .     S
Si78   O268    1.620   .     S
Si78   O275    1.629   .     S
Si79   O237    1.632   .     S
Si79   O238    1.620   .     S
Si79   O265    1.619   .     S
Si79   O276    1.626   .     S
Si80   O238    1.625   .     S
Si80   O239    1.627   .     S
Si80   O242    1.624   .     S
Si80   O250    1.627   1_455 S
Si81   O239    1.628   .     S
Si81   O240    1.630   .     S
Si81   O248    1.625   .     S
Si81   O274    1.623   .     S
Si82   O161    1.621   .     S
Si82   O251    1.624   .     S
Si82   O265    1.627   .     S
Si82   O266    1.625   .     S
Si83   O251    1.624   .     S
Si83   O252    1.625   .     S
Si83   O256    1.621   .     S
Si83   O263    1.624   .     S
Si84   O247    1.626   .     S
Si84   O248    1.626   .     S
Si84   O252    1.623   1_554 S
Si84   O253    1.625   .     S
Si85   O244    1.623   .     S
Si85   O245    1.626   .     S
Si85   O253    1.622   .     S
Si85   O254    1.619   1_554 S
Si86   O255    1.621   .     S
Si86   O256    1.622   .     S
Si86   O268    1.628   .     S
Si86   O269    1.627   .     S
Si87   O162    1.630   .     S
Si87   O257    1.624   .     S
Si87   O267    1.629   .     S
Si87   O277    1.622   .     S
Si88   O257    1.622   .     S
Si88   O258    1.619   .     S
Si88   O262    1.625   .     S
Si88   O263    1.624   .     S
Si89   O246    1.622   .     S
Si89   O258    1.624   1_554 S
Si89   O259    1.630   .     S
Si89   O279    1.624   .     S
Si90   O243    1.624   .     S
Si90   O259    1.633   .     S
Si90   O260    1.619   1_554 S
Si90   O280    1.624   .     S
Si91   O260    1.621   .     S
Si91   O261    1.627   .     S
Si91   O264    1.626   .     S
Si91   O272    1.627   .     S
Si92   O261    1.628   .     S
Si92   O262    1.629   .     S
Si92   O270    1.624   .     S
Si92   O278    1.623   .     S
Si93   O210    1.626   .     S
Si93   O211    1.625   .     S
Si93   O220    1.629   .     S
Si93   O227    1.622   .     S
Si94   O216    1.623   .     S
Si94   O217    1.632   .     S
Si94   O220    1.622   .     S
Si94   O228    1.628   .     S
Si95   O254    1.627   .     S
Si95   O255    1.624   .     S
Si95   O264    1.626   .     S
Si95   O271    1.623   .     S
Al96   O122    1.721   .     S
Al96   O123    1.881   .     S
Al96   O132    1.715   .     S
Al96   O139    1.720   .     S
O117   Si5     1.622   1_655 S
O118   Si11    1.628   1_655 S
O120   Si15    1.627   1_556 S
O122   Si16    1.592   1_556 S
O126   Si20    1.625   1_556 S
O128   Si21    1.616   1_556 S
O161   Si28    1.624   1_455 S
O162   Si34    1.627   1_455 S
O164   Si38    1.622   1_554 S
O166   Si39    1.618   1_554 S
O170   Si44    1.625   1_554 S
O172   Si45    1.621   1_554 S
O205   Si52    1.627   1_455 S
O206   Si58    1.627   1_455 S
O208   Si62    1.624   1_554 S
O210   Si63    1.624   1_554 S
O214   Si67    1.624   1_554 S
O216   Si68    1.624   1_554 S
O249   Si74    1.623   1_655 S
O250   Si80    1.627   1_655 S
O252   Si84    1.623   1_556 S
O254   Si85    1.619   1_556 S
O258   Si89    1.624   1_556 S
O260   Si90    1.619   1_556 S
O277   Si306   1.621   1_545 S
O278   Si311   1.626   1_545 S
O279   Si308   1.625   1_545 S
O280   Si309   1.630   1_545 S
O281   Si342   1.625   1_545 S
O282   Si347   1.623   1_545 S
O283   Si344   1.625   1_545 S
O284   Si345   1.625   1_545 S
Si289  O385    1.626   .     S
Si289  O399    1.626   .     S
Si289  O400    1.620   .     S
Si289  O515    1.624   .     S
Si290  O385    1.617   .     S
Si290  O386    1.627   .     S
Si290  O390    1.620   .     S
Si290  O397    1.628   .     S
Si291  O386    1.618   .     S
Si291  O387    1.623   .     S
Si291  O425    1.640   .     S
Si291  O426    1.621   .     S
Si292  O387    1.623   .     S
Si292  O388    1.616   .     S
Si292  O422    1.624   .     S
Si292  O423    1.623   .     S
Si293  O388    1.625   .     S
Si293  O389    1.619   .     S
Si293  O398    1.628   .     S
Si293  O405    1.622   1_455 S
Si294  O389    1.622   .     S
Si294  O390    1.623   .     S
Si294  O402    1.621   .     S
Si294  O403    1.626   .     S
Si295  O391    1.627   .     S
Si295  O401    1.617   .     S
Si295  O516    1.633   .     S
Si295  O561    1.623   .     S
Si296  O391    1.617   .     S
Si296  O392    1.628   .     S
Si296  O396    1.622   .     S
Si296  O397    1.621   .     S
Si297  O392    1.618   .     S
Si297  O393    1.621   .     S
Si297  O424    1.626   .     S
Si297  O563    1.620   .     S
Si298  O393    1.634   .     S
Si298  O394    1.618   .     S
Si298  O421    1.619   .     S
Si298  O564    1.623   .     S
Si299  O394    1.627   .     S
Si299  O395    1.624   .     S
Si299  O398    1.622   .     S
Si299  O406    1.628   1_455 S
Si300  O395    1.627   .     S
Si300  O396    1.628   .     S
Si300  O404    1.628   .     S
Si300  O562    1.623   .     S
Si301  O407    1.624   .     S
Si301  O421    1.625   .     S
Si301  O422    1.625   .     S
Si301  O493    1.621   .     S
Si302  O407    1.622   .     S
Si302  O408    1.619   .     S
Si302  O412    1.635   .     S
Si302  O419    1.618   .     S
Si303  O403    1.627   .     S
Si303  O404    1.632   .     S
Si303  O408    1.627   1_554 S
Si303  O409    1.620   .     S
Si304  O400    1.633   .     S
Si304  O401    1.634   .     S
Si304  O409    1.636   .     S
Si304  O410    1.592   1_554 S
Si305  O411    1.690   .     S
Si305  O412    1.605   .     S
Si305  O424    1.610   .     S
Si305  O425    1.610   .     S
Si306  O413    1.619   .     S
Si306  O423    1.629   .     S
Si306  O494    1.629   .     S
Si306  O277    1.621   1_565 S
Si307  O413    1.617   .     S
Si307  O414    1.619   .     S
Si307  O418    1.624   .     S
Si307  O419    1.626   .     S
Si308  O402    1.620   .     S
Si308  O414    1.625   1_554 S
Si308  O415    1.628   .     S
Si308  O279    1.625   1_565 S
Si309  O399    1.622   .     S
Si309  O415    1.633   .     S
Si309  O416    1.616   1_554 S
Si309  O280    1.630   1_565 S
Si310  O416    1.636   .     S
Si310  O417    1.639   .     S
Si310  O420    1.600   .     S
Si310  O428    1.636   .     S
Si311  O417    1.621   .     S
Si311  O418    1.631   .     S
Si311  O426    1.633   .     S
Si311  O278    1.626   1_565 S
Si312  O429    1.620   .     S
Si312  O443    1.625   .     S
Si312  O444    1.626   .     S
Si312  O559    1.622   .     S
Si313  O429    1.619   .     S
Si313  O430    1.626   .     S
Si313  O434    1.620   .     S
Si313  O441    1.624   .     S
Si314  O430    1.624   .     S
Si314  O431    1.626   .     S
Si314  O469    1.626   .     S
Si314  O470    1.627   .     S
Si315  O431    1.621   .     S
Si315  O432    1.620   .     S
Si315  O466    1.623   .     S
Si315  O467    1.627   .     S
Si316  O432    1.627   .     S
Si316  O433    1.621   .     S
Si316  O442    1.627   .     S
Si316  O449    1.624   1_655 S
Si317  O433    1.621   .     S
Si317  O434    1.622   .     S
Si317  O446    1.622   .     S
Si317  O447    1.625   .     S
Si318  O435    1.621   .     S
Si318  O445    1.630   .     S
Si318  O560    1.633   .     S
Si318  O569    1.619   .     S
Si319  O435    1.615   .     S
Si319  O436    1.621   .     S
Si319  O440    1.627   .     S
Si319  O441    1.623   .     S
Si320  O436    1.624   .     S
Si320  O437    1.632   .     S
Si320  O468    1.619   .     S
Si320  O571    1.624   .     S
Si321  O437    1.630   .     S
Si321  O438    1.623   .     S
Si321  O465    1.621   .     S
Si321  O572    1.624   .     S
Si322  O438    1.625   .     S
Si322  O439    1.627   .     S
Si322  O442    1.624   .     S
Si322  O450    1.627   1_655 S
Si323  O439    1.630   .     S
Si323  O440    1.629   .     S
Si323  O448    1.627   .     S
Si323  O570    1.623   .     S
Si324  O451    1.622   .     S
Si324  O465    1.625   .     S
Si324  O466    1.625   .     S
Si324  O537    1.623   .     S
Si325  O451    1.623   .     S
Si325  O452    1.624   .     S
Si325  O456    1.619   .     S
Si325  O463    1.624   .     S
Si326  O447    1.625   .     S
Si326  O448    1.627   .     S
Si326  O452    1.622   1_556 S
Si326  O453    1.624   .     S
Si327  O444    1.625   .     S
Si327  O445    1.624   .     S
Si327  O453    1.621   .     S
Si327  O454    1.618   1_556 S
Si328  O454    1.625   .     S
Si328  O455    1.622   .     S
Si328  O464    1.627   .     S
Si328  O471    1.624   .     S
Si329  O455    1.622   .     S
Si329  O456    1.622   .     S
Si329  O468    1.621   .     S
Si329  O469    1.627   .     S
Si330  O457    1.621   .     S
Si330  O467    1.630   .     S
Si330  O538    1.632   .     S
Si330  O573    1.623   .     S
Si331  O457    1.619   .     S
Si331  O458    1.621   .     S
Si331  O462    1.628   .     S
Si331  O463    1.622   .     S
Si332  O446    1.621   .     S
Si332  O458    1.625   1_556 S
Si332  O459    1.633   .     S
Si332  O575    1.624   .     S
Si333  O443    1.621   .     S
Si333  O459    1.632   .     S
Si333  O460    1.621   1_556 S
Si333  O576    1.623   .     S
Si334  O460    1.623   .     S
Si334  O461    1.628   .     S
Si334  O464    1.622   .     S
Si334  O472    1.628   .     S
Si335  O461    1.628   .     S
Si335  O462    1.629   .     S
Si335  O470    1.626   .     S
Si335  O574    1.624   .     S
Si336  O427    1.596   .     S
Si336  O473    1.633   .     S
Si336  O487    1.637   .     S
Si336  O488    1.633   .     S
Si337  O473    1.615   .     S
Si337  O474    1.630   .     S
Si337  O478    1.625   .     S
Si337  O485    1.624   .     S
Si338  O474    1.624   .     S
Si338  O475    1.624   .     S
Si338  O513    1.623   .     S
Si338  O514    1.630   .     S
Si339  O475    1.621   .     S
Si339  O476    1.621   .     S
Si339  O510    1.623   .     S
Si339  O511    1.624   .     S
Si340  O476    1.628   .     S
Si340  O477    1.623   .     S
Si340  O486    1.627   .     S
Si340  O493    1.627   1_655 S
Si341  O477    1.625   .     S
Si341  O478    1.624   .     S
Si341  O490    1.624   .     S
Si341  O491    1.626   .     S
Si342  O428    1.624   .     S
Si342  O479    1.627   .     S
Si342  O489    1.629   .     S
Si342  O281    1.625   1_565 S
Si343  O479    1.619   .     S
Si343  O480    1.621   .     S
Si343  O484    1.629   .     S
Si343  O485    1.623   .     S
Si344  O480    1.623   .     S
Si344  O481    1.632   .     S
Si344  O512    1.622   .     S
Si344  O283    1.625   1_565 S
Si345  O481    1.630   .     S
Si345  O482    1.620   .     S
Si345  O509    1.621   .     S
Si345  O284    1.625   1_565 S
Si346  O482    1.621   .     S
Si346  O483    1.624   .     S
Si346  O486    1.625   .     S
Si346  O494    1.627   1_655 S
Si347  O483    1.627   .     S
Si347  O484    1.628   .     S
Si347  O492    1.624   .     S
Si347  O282    1.623   1_565 S
Si348  O405    1.621   .     S
Si348  O495    1.621   .     S
Si348  O509    1.624   .     S
Si348  O510    1.626   .     S
Si349  O495    1.621   .     S
Si349  O496    1.623   .     S
Si349  O500    1.621   .     S
Si349  O507    1.624   .     S
Si350  O491    1.627   .     S
Si350  O492    1.625   .     S
Si350  O496    1.624   1_556 S
Si350  O497    1.620   .     S
Si351  O488    1.618   .     S
Si351  O489    1.624   .     S
Si351  O497    1.623   .     S
Si351  O498    1.624   1_556 S
Si352  O499    1.621   .     S
Si352  O500    1.624   .     S
Si352  O512    1.624   .     S
Si352  O513    1.626   .     S
Si353  O406    1.633   .     S
Si353  O501    1.620   .     S
Si353  O511    1.627   .     S
Si353  O573    1.623   .     S
Si354  O501    1.618   .     S
Si354  O502    1.619   .     S
Si354  O506    1.628   .     S
Si354  O507    1.621   .     S
Si355  O490    1.622   .     S
Si355  O502    1.624   1_556 S
Si355  O503    1.628   .     S
Si355  O575    1.624   .     S
Si356  O487    1.615   .     S
Si356  O503    1.630   .     S
Si356  O504    1.624   1_556 S
Si356  O576    1.627   .     S
Si357  O505    1.629   .     S
Si357  O506    1.627   .     S
Si357  O514    1.628   .     S
Si357  O574    1.622   .     S
Si358  O471    1.622   .     S
Si358  O517    1.623   .     S
Si358  O531    1.625   .     S
Si358  O532    1.627   .     S
Si359  O517    1.620   .     S
Si359  O518    1.623   .     S
Si359  O522    1.621   .     S
Si359  O529    1.625   .     S
Si360  O518    1.622   .     S
Si360  O519    1.625   .     S
Si360  O557    1.627   .     S
Si360  O558    1.620   .     S
Si361  O519    1.621   .     S
Si361  O520    1.621   .     S
Si361  O554    1.623   .     S
Si361  O555    1.624   .     S
Si362  O520    1.628   .     S
Si362  O521    1.622   .     S
Si362  O530    1.629   .     S
Si362  O537    1.623   1_455 S
Si363  O521    1.622   .     S
Si363  O522    1.623   .     S
Si363  O534    1.622   .     S
Si363  O535    1.628   .     S
Si364  O472    1.630   .     S
Si364  O523    1.624   .     S
Si364  O533    1.629   .     S
Si364  O561    1.619   .     S
Si365  O523    1.619   .     S
Si365  O524    1.622   .     S
Si365  O528    1.627   .     S
Si365  O529    1.621   .     S
Si366  O524    1.622   .     S
Si366  O525    1.629   .     S
Si366  O556    1.620   .     S
Si366  O563    1.629   .     S
Si367  O525    1.632   .     S
Si367  O526    1.620   .     S
Si367  O553    1.619   .     S
Si367  O564    1.626   .     S
Si368  O526    1.625   .     S
Si368  O527    1.627   .     S
Si368  O530    1.624   .     S
Si368  O538    1.627   1_455 S
Si369  O527    1.628   .     S
Si369  O528    1.630   .     S
Si369  O536    1.625   .     S
Si369  O562    1.623   .     S
Si370  O449    1.621   .     S
Si370  O539    1.624   .     S
Si370  O553    1.627   .     S
Si370  O554    1.625   .     S
Si371  O539    1.624   .     S
Si371  O540    1.625   .     S
Si371  O544    1.621   .     S
Si371  O551    1.624   .     S
Si372  O535    1.626   .     S
Si372  O536    1.626   .     S
Si372  O540    1.623   1_554 S
Si372  O541    1.625   .     S
Si373  O532    1.623   .     S
Si373  O533    1.626   .     S
Si373  O541    1.622   .     S
Si373  O542    1.619   1_554 S
Si374  O543    1.621   .     S
Si374  O544    1.622   .     S
Si374  O556    1.628   .     S
Si374  O557    1.627   .     S
Si375  O450    1.630   .     S
Si375  O545    1.624   .     S
Si375  O555    1.629   .     S
Si375  O565    1.622   .     S
Si376  O545    1.622   .     S
Si376  O546    1.619   .     S
Si376  O550    1.625   .     S
Si376  O551    1.624   .     S
Si377  O534    1.622   .     S
Si377  O546    1.624   1_554 S
Si377  O547    1.630   .     S
Si377  O567    1.624   .     S
Si378  O531    1.624   .     S
Si378  O547    1.633   .     S
Si378  O548    1.619   1_554 S
Si378  O568    1.624   .     S
Si379  O548    1.621   .     S
Si379  O549    1.627   .     S
Si379  O552    1.626   .     S
Si379  O560    1.627   .     S
Si380  O549    1.628   .     S
Si380  O550    1.629   .     S
Si380  O558    1.624   .     S
Si380  O566    1.623   .     S
Si381  O498    1.626   .     S
Si381  O499    1.625   .     S
Si381  O508    1.629   .     S
Si381  O515    1.622   .     S
Si382  O504    1.623   .     S
Si382  O505    1.632   .     S
Si382  O508    1.622   .     S
Si382  O516    1.628   .     S
Si383  O542    1.627   .     S
Si383  O543    1.624   .     S
Si383  O552    1.626   .     S
Si383  O559    1.623   .     S
Al384  O410    1.721   .     S
Al384  O411    1.881   .     S
Al384  O420    1.715   .     S
Al384  O427    1.720   .     S
O405   Si293   1.622   1_655 S
O406   Si299   1.628   1_655 S
O408   Si303   1.627   1_556 S
O410   Si304   1.592   1_556 S
O411   H577    1.005   .     S
O414   Si308   1.625   1_556 S
O416   Si309   1.616   1_556 S
O449   Si316   1.624   1_455 S
O450   Si322   1.627   1_455 S
O452   Si326   1.622   1_554 S
O454   Si327   1.618   1_554 S
O458   Si332   1.625   1_554 S
O460   Si333   1.621   1_554 S
O493   Si340   1.627   1_455 S
O494   Si346   1.627   1_455 S
O496   Si350   1.624   1_554 S
O498   Si351   1.624   1_554 S
O502   Si355   1.624   1_554 S
O504   Si356   1.624   1_554 S
O537   Si362   1.623   1_655 S
O538   Si368   1.627   1_655 S
O540   Si372   1.623   1_556 S
O542   Si373   1.619   1_556 S
O546   Si377   1.624   1_556 S
O548   Si378   1.619   1_556 S
H578   C584    1.089   .     S
H579   C585    1.086   .     S
H580   C582    1.088   .     S
H581   C583    1.085   .     S
C582   C583    1.370   .     D
C582   C584    1.429   .     S
C583   S586    1.728   .     S
C584   C585    1.371   .     D
C585   S586    1.725   .     S
