data_T6-O1
_audit_creation_date              2022-06-16
_audit_creation_method            'Materials Studio'
_symmetry_space_group_name_H-M    'P1'
_symmetry_Int_Tables_number       1
_symmetry_cell_setting            triclinic
loop_
_symmetry_equiv_pos_as_xyz
  x,y,z
_cell_length_a                    20.3820
_cell_length_b                    40.3304
_cell_length_c                    13.5742
_cell_angle_alpha                 90
_cell_angle_beta                  90
_cell_angle_gamma                 90
loop_
_atom_site_label
_atom_site_type_symbol
_atom_site_fract_x
_atom_site_fract_y
_atom_site_fract_z
_atom_site_U_iso_or_equiv
_atom_site_adp_type
_atom_site_occupancy
Si1    Si    0.42356   0.42086   0.14588   0.01267  Uiso   1.00
Si2    Si    0.30742   0.40818   0.29663   0.01267  Uiso   1.00
Si3    Si    0.28202   0.42824   0.51156   0.01267  Uiso   1.00
Si4    Si    0.12400   0.42627   0.50935   0.01267  Uiso   1.00
Si5    Si    0.07352   0.40721   0.29908   0.01267  Uiso   1.00
Si6    Si    0.18537   0.41970   0.15034   0.01267  Uiso   1.00
Si7    Si    0.42317   0.30792   0.15981   0.01267  Uiso   1.00
Si8    Si    0.30582   0.32964   0.30417   0.01267  Uiso   1.00
Si9    Si    0.26876   0.30515   0.51350   0.01267  Uiso   1.00
Si10   Si    0.11516   0.30569   0.50785   0.01267  Uiso   1.00
Si11   Si    0.06605   0.32849   0.29932   0.01267  Uiso   1.00
Si12   Si    0.18502   0.30796   0.16983   0.01267  Uiso   1.00
Si13   Si    0.07803   0.36525   0.64242   0.01267  Uiso   1.00
Si14   Si    0.19332   0.37977   0.79432   0.01267  Uiso   1.00
Si15   Si    0.21857   0.35935   0.00891   0.01267  Uiso   1.00
Si16   Si    0.37763   0.36009   0.00831   0.01267  Uiso   1.00
Si17   Si    0.43293   0.37846   0.79761   0.01267  Uiso   1.00
Si18   Si    0.07772   0.47952   0.66022   0.01267  Uiso   1.00
Si19   Si    0.19213   0.45809   0.80568   0.01267  Uiso   1.00
Si20   Si    0.22973   0.47922   0.01995   0.01267  Uiso   1.00
Si21   Si    0.38354   0.47860   0.00968   0.01267  Uiso   1.00
Si22   Si    0.43072   0.45724   0.79319   0.01267  Uiso   1.00
Si23   Si    0.31177   0.48037   0.66953   0.01267  Uiso   1.00
Si24   Si    0.57420   0.17132   0.83147   0.01267  Uiso   1.00
Si25   Si    0.69002   0.15709   0.68193   0.01267  Uiso   1.00
Si26   Si    0.71827   0.17536   0.46435   0.01267  Uiso   1.00
Si27   Si    0.87658   0.17566   0.46660   0.01267  Uiso   1.00
Si28   Si    0.92662   0.15720   0.67851   0.01267  Uiso   1.00
Si29   Si    0.81309   0.17044   0.82360   0.01267  Uiso   1.00
Si30   Si    0.57487   0.05702   0.81573   0.01267  Uiso   1.00
Si31   Si    0.69185   0.07816   0.67314   0.01267  Uiso   1.00
Si32   Si    0.72965   0.05629   0.45930   0.01267  Uiso   1.00
Si33   Si    0.88321   0.05602   0.46763   0.01267  Uiso   1.00
Si34   Si    0.93161   0.07841   0.67828   0.01267  Uiso   1.00
Si35   Si    0.81349   0.05766   0.80891   0.01267  Uiso   1.00
Si36   Si    0.92229   0.11457   0.33207   0.01267  Uiso   1.00
Si37   Si    0.80573   0.12894   0.18515   0.01267  Uiso   1.00
Si38   Si    0.77823   0.11071   0.96545   0.01267  Uiso   1.00
Si39   Si    0.61968   0.11018   0.96700   0.01267  Uiso   1.00
Si40   Si    0.56992   0.12802   0.18099   0.01267  Uiso   1.00
Si41   Si    0.68265   0.11505   0.32628   0.01267  Uiso   1.00
Si42   Si    0.92145   0.22936   0.31565   0.01267  Uiso   1.00
Si43   Si    0.80626   0.20818   0.17216   0.01267  Uiso   1.00
Si44   Si    0.76908   0.22893   0.95729   0.01267  Uiso   1.00
Si45   Si    0.61538   0.22926   0.96803   0.01267  Uiso   1.00
Si46   Si    0.56569   0.20740   0.18037   0.01267  Uiso   1.00
Si47   Si    0.68488   0.22924   0.30689   0.01267  Uiso   1.00
Si48   Si    0.57953   0.36393   0.83388   0.01267  Uiso   1.00
Si49   Si    0.69390   0.37859   0.68447   0.01267  Uiso   1.00
Si50   Si    0.72060   0.36151   0.46456   0.01267  Uiso   1.00
Si51   Si    0.87875   0.36086   0.46655   0.01267  Uiso   1.00
Si52   Si    0.93020   0.37844   0.67847   0.01267  Uiso   1.00
Si53   Si    0.81754   0.36492   0.82260   0.01267  Uiso   1.00
Si54   Si    0.57619   0.47927   0.81215   0.01267  Uiso   1.00
Si55   Si    0.69202   0.45773   0.67136   0.01267  Uiso   1.00
Si56   Si    0.73038   0.47858   0.45523   0.01267  Uiso   1.00
Si57   Si    0.88399   0.47960   0.46452   0.01267  Uiso   1.00
Si58   Si    0.93255   0.45753   0.67687   0.01267  Uiso   1.00
Si59   Si    0.81401   0.47917   0.80588   0.01267  Uiso   1.00
Si60   Si    0.92551   0.42146   0.33023   0.01267  Uiso   1.00
Si61   Si    0.80941   0.40694   0.18145   0.01267  Uiso   1.00
Si62   Si    0.78189   0.42515   0.96267   0.01267  Uiso   1.00
Si63   Si    0.62358   0.42603   0.96465   0.01267  Uiso   1.00
Si64   Si    0.57272   0.40731   0.17495   0.01267  Uiso   1.00
Si65   Si    0.68524   0.42064   0.32131   0.01267  Uiso   1.00
Si66   Si    0.92193   0.30690   0.31515   0.01267  Uiso   1.00
Si67   Si    0.80731   0.32791   0.17064   0.01267  Uiso   1.00
Si68   Si    0.77001   0.30652   0.95600   0.01267  Uiso   1.00
Si69   Si    0.61670   0.30561   0.96859   0.01267  Uiso   1.00
Si70   Si    0.56878   0.32873   0.17813   0.01267  Uiso   1.00
Si71   Si    0.68648   0.30790   0.30783   0.01267  Uiso   1.00
Si72   Si    0.42338   0.11326   0.14502   0.01267  Uiso   1.00
Si73   Si    0.30898   0.12803   0.29235   0.01267  Uiso   1.00
Si74   Si    0.27921   0.11193   0.51277   0.01267  Uiso   1.00
Si75   Si    0.12120   0.11140   0.51230   0.01267  Uiso   1.00
Si76   Si    0.06913   0.12803   0.29977   0.01267  Uiso   1.00
Si77   Si    0.18357   0.11453   0.15801   0.01267  Uiso   1.00
Si78   Si    0.42040   0.22998   0.16715   0.01267  Uiso   1.00
Si79   Si    0.30786   0.20688   0.30826   0.01267  Uiso   1.00
Si80   Si    0.26637   0.22700   0.52229   0.01267  Uiso   1.00
Si81   Si    0.11320   0.22927   0.51283   0.01267  Uiso   1.00
Si82   Si    0.06554   0.20718   0.30041   0.01267  Uiso   1.00
Si83   Si    0.18626   0.22924   0.17649   0.01267  Uiso   1.00
Si84   Si    0.07457   0.17173   0.65058   0.01267  Uiso   1.00
Si85   Si    0.18828   0.15699   0.80209   0.01267  Uiso   1.00
Si86   Si    0.21813   0.17519   0.01924   0.01267  Uiso   1.00
Si87   Si    0.37613   0.17553   0.01630   0.01267  Uiso   1.00
Si88   Si    0.42624   0.15829   0.80389   0.01267  Uiso   1.00
Si89   Si    0.31127   0.17035   0.66098   0.01267  Uiso   1.00
Si90   Si    0.07765   0.05711   0.66369   0.01267  Uiso   1.00
Si91   Si    0.19057   0.07860   0.80975   0.01267  Uiso   1.00
Si92   Si    0.23080   0.05626   0.02280   0.01267  Uiso   1.00
Si93   Si    0.38425   0.05553   0.00784   0.01267  Uiso   1.00
Si94   Si    0.43052   0.07946   0.79794   0.01267  Uiso   1.00
Si95   Si    0.31085   0.05941   0.67113   0.01267  Uiso   1.00
Al96   Al    0.31248   0.36625   0.64555   0.01267  Uiso   1.00
O97    O     0.37016   0.42119   0.23376   0.01267  Uiso   1.00
O98    O     0.30207   0.43053   0.39522   0.01267  Uiso   1.00
O99    O     0.20261   0.42255   0.52070   0.01267  Uiso   1.00
O100   O     0.10240   0.42686   0.39416   0.01267  Uiso   1.00
O101   O     0.11332   0.41830   0.20103   0.01267  Uiso   1.00
O102   O     0.24095   0.41258   0.23275   0.01267  Uiso   1.00
O103   O     0.36595   0.31488   0.23945   0.01267  Uiso   1.00
O104   O     0.30606   0.30941   0.40727   0.01267  Uiso   1.00
O105   O     0.19203   0.31604   0.49882   0.01267  Uiso   1.00
O106   O     0.08151   0.30798   0.39957   0.01267  Uiso   1.00
O107   O     0.11062   0.31441   0.20909   0.01267  Uiso   1.00
O108   O     0.23631   0.32418   0.24796   0.01267  Uiso   1.00
O109   O     0.31683   0.36902   0.32331   0.01267  Uiso   1.00
O110   O     0.08125   0.36751   0.31771   0.01267  Uiso   1.00
O111   O     0.42383   0.45619   0.08831   0.01267  Uiso   1.00
O112   O     0.40768   0.39162   0.06685   0.01267  Uiso   1.00
O113   O     0.40508   0.32579   0.05562   0.01267  Uiso   1.00
O114   O     0.19453   0.45636   0.10264   0.01267  Uiso   1.00
O115   O     0.18964   0.39173   0.06496   0.01267  Uiso   1.00
O116   O     0.19495   0.32532   0.06284   0.01267  Uiso   1.00
O117   O     0.99692   0.41650   0.28000   0.01267  Uiso   1.00
O118   O     0.98909   0.32305   0.27105   0.01267  Uiso   1.00
O119   O     0.13499   0.36506   0.72486   0.01267  Uiso   1.00
O120   O     0.19054   0.35902   0.89772   0.01267  Uiso   1.00
O121   O     0.29856   0.36124   0.01072   0.01267  Uiso   1.00
O122   O     0.40433   0.36115   0.89537   0.01267  Uiso   1.00
O123   O     0.39599   0.36036   0.70042   0.01267  Uiso   1.00
O124   O     0.26411   0.37571   0.74500   0.01267  Uiso   1.00
O125   O     0.13359   0.47574   0.74417   0.01267  Uiso   1.00
O126   O     0.19398   0.47519   0.91395   0.01267  Uiso   1.00
O127   O     0.30650   0.46797   0.01015   0.01267  Uiso   1.00
O128   O     0.41306   0.47280   0.89992   0.01267  Uiso   1.00
O129   O     0.38702   0.47424   0.70728   0.01267  Uiso   1.00
O130   O     0.26226   0.46431   0.75085   0.01267  Uiso   1.00
O131   O     0.17764   0.41883   0.81703   0.01267  Uiso   1.00
O132   O     0.41588   0.41732   0.79347   0.01267  Uiso   1.00
O133   O     0.07756   0.32997   0.58439   0.01267  Uiso   1.00
O134   O     0.08811   0.39515   0.56326   0.01267  Uiso   1.00
O135   O     0.09927   0.46081   0.55915   0.01267  Uiso   1.00
O136   O     0.30342   0.32728   0.59575   0.01267  Uiso   1.00
O137   O     0.32043   0.39839   0.56353   0.01267  Uiso   1.00
O138   O     0.30039   0.46399   0.56184   0.01267  Uiso   1.00
O139   O     0.50938   0.36998   0.77942   0.01267  Uiso   1.00
O140   O     0.50826   0.46308   0.77061   0.01267  Uiso   1.00
O141   O     0.62960   0.17193   0.74584   0.01267  Uiso   1.00
O142   O     0.69271   0.17683   0.57761   0.01267  Uiso   1.00
O143   O     0.79754   0.17128   0.46045   0.01267  Uiso   1.00
O144   O     0.90068   0.17625   0.58027   0.01267  Uiso   1.00
O145   O     0.88535   0.16975   0.77371   0.01267  Uiso   1.00
O146   O     0.75870   0.16259   0.73963   0.01267  Uiso   1.00
O147   O     0.63261   0.06115   0.73447   0.01267  Uiso   1.00
O148   O     0.69299   0.06159   0.56443   0.01267  Uiso   1.00
O149   O     0.80634   0.06727   0.46960   0.01267  Uiso   1.00
O150   O     0.91307   0.05851   0.57808   0.01267  Uiso   1.00
O151   O     0.88774   0.06421   0.76928   0.01267  Uiso   1.00
O152   O     0.76176   0.07176   0.72758   0.01267  Uiso   1.00
O153   O     0.67900   0.11773   0.66334   0.01267  Uiso   1.00
O154   O     0.91646   0.11756   0.66230   0.01267  Uiso   1.00
O155   O     0.57555   0.20644   0.89025   0.01267  Uiso   1.00
O156   O     0.58653   0.14123   0.90911   0.01267  Uiso   1.00
O157   O     0.59526   0.07554   0.91789   0.01267  Uiso   1.00
O158   O     0.80142   0.20709   0.86978   0.01267  Uiso   1.00
O159   O     0.80975   0.14282   0.91064   0.01267  Uiso   1.00
O160   O     0.80276   0.07657   0.91349   0.01267  Uiso   1.00
O161   O     0.00304   0.16574   0.70008   0.01267  Uiso   1.00
O162   O     0.00876   0.07277   0.70351   0.01267  Uiso   1.00
O163   O     0.86528   0.11317   0.24885   0.01267  Uiso   1.00
O164   O     0.80260   0.11037   0.07917   0.01267  Uiso   1.00
O165   O     0.69880   0.11333   0.95883   0.01267  Uiso   1.00
O166   O     0.59715   0.11034   0.08133   0.01267  Uiso   1.00
O167   O     0.61050   0.11466   0.27587   0.01267  Uiso   1.00
O168   O     0.73660   0.12325   0.24172   0.01267  Uiso   1.00
O169   O     0.86480   0.22614   0.23229   0.01267  Uiso   1.00
O170   O     0.80721   0.22253   0.06051   0.01267  Uiso   1.00
O171   O     0.69226   0.21829   0.97081   0.01267  Uiso   1.00
O172   O     0.58392   0.22573   0.07717   0.01267  Uiso   1.00
O173   O     0.61036   0.22274   0.26857   0.01267  Uiso   1.00
O174   O     0.73557   0.21625   0.22255   0.01267  Uiso   1.00
O175   O     0.81809   0.16842   0.17044   0.01267  Uiso   1.00
O176   O     0.57918   0.16792   0.16951   0.01267  Uiso   1.00
O177   O     0.92346   0.07981   0.39262   0.01267  Uiso   1.00
O178   O     0.91065   0.14490   0.40897   0.01267  Uiso   1.00
O179   O     0.89863   0.21046   0.41608   0.01267  Uiso   1.00
O180   O     0.69538   0.07884   0.37487   0.01267  Uiso   1.00
O181   O     0.68478   0.14357   0.41081   0.01267  Uiso   1.00
O182   O     0.69705   0.20968   0.41002   0.01267  Uiso   1.00
O183   O     0.49349   0.11849   0.19953   0.01267  Uiso   1.00
O184   O     0.48907   0.21418   0.20681   0.01267  Uiso   1.00
O185   O     0.63662   0.36169   0.75115   0.01267  Uiso   1.00
O186   O     0.69401   0.36051   0.57748   0.01267  Uiso   1.00
O187   O     0.79969   0.36550   0.46177   0.01267  Uiso   1.00
O188   O     0.90304   0.35999   0.57996   0.01267  Uiso   1.00
O189   O     0.89032   0.36480   0.77422   0.01267  Uiso   1.00
O190   O     0.76462   0.37309   0.73627   0.01267  Uiso   1.00
O191   O     0.63213   0.47626   0.72746   0.01267  Uiso   1.00
O192   O     0.69320   0.47090   0.55867   0.01267  Uiso   1.00
O193   O     0.80727   0.46799   0.46542   0.01267  Uiso   1.00
O194   O     0.91408   0.47598   0.57431   0.01267  Uiso   1.00
O195   O     0.88799   0.47305   0.76506   0.01267  Uiso   1.00
O196   O     0.76173   0.46588   0.72413   0.01267  Uiso   1.00
O197   O     0.67919   0.41795   0.67333   0.01267  Uiso   1.00
O198   O     0.91799   0.41812   0.66625   0.01267  Uiso   1.00
O199   O     0.57506   0.32921   0.89435   0.01267  Uiso   1.00
O200   O     0.59063   0.39427   0.91015   0.01267  Uiso   1.00
O201   O     0.59977   0.46003   0.91154   0.01267  Uiso   1.00
O202   O     0.80363   0.32853   0.86972   0.01267  Uiso   1.00
O203   O     0.81343   0.39299   0.90831   0.01267  Uiso   1.00
O204   O     0.80450   0.45934   0.90926   0.01267  Uiso   1.00
O205   O     0.00707   0.37012   0.69561   0.01267  Uiso   1.00
O206   O     0.00933   0.46394   0.70252   0.01267  Uiso   1.00
O207   O     0.86959   0.42195   0.24515   0.01267  Uiso   1.00
O208   O     0.80699   0.42598   0.07601   0.01267  Uiso   1.00
O209   O     0.70245   0.42222   0.95807   0.01267  Uiso   1.00
O210   O     0.59945   0.42702   0.07829   0.01267  Uiso   1.00
O211   O     0.61297   0.41970   0.27119   0.01267  Uiso   1.00
O212   O     0.74015   0.41254   0.23808   0.01267  Uiso   1.00
O213   O     0.86517   0.30988   0.23184   0.01267  Uiso   1.00
O214   O     0.80690   0.31260   0.06031   0.01267  Uiso   1.00
O215   O     0.69311   0.31735   0.96676   0.01267  Uiso   1.00
O216   O     0.58828   0.30790   0.07994   0.01267  Uiso   1.00
O217   O     0.61172   0.31560   0.27151   0.01267  Uiso   1.00
O218   O     0.73661   0.32106   0.22305   0.01267  Uiso   1.00
O219   O     0.82062   0.36748   0.16491   0.01267  Uiso   1.00
O220   O     0.58377   0.36770   0.15803   0.01267  Uiso   1.00
O221   O     0.92471   0.45678   0.38767   0.01267  Uiso   1.00
O222   O     0.91269   0.39166   0.40879   0.01267  Uiso   1.00
O223   O     0.89943   0.32602   0.41523   0.01267  Uiso   1.00
O224   O     0.69681   0.45732   0.36726   0.01267  Uiso   1.00
O225   O     0.68774   0.39297   0.40857   0.01267  Uiso   1.00
O226   O     0.69925   0.32689   0.41184   0.01267  Uiso   1.00
O227   O     0.49566   0.41497   0.19339   0.01267  Uiso   1.00
O228   O     0.49171   0.32282   0.20365   0.01267  Uiso   1.00
O229   O     0.36589   0.11020   0.22742   0.01267  Uiso   1.00
O230   O     0.30967   0.11218   0.40225   0.01267  Uiso   1.00
O231   O     0.20009   0.11635   0.50878   0.01267  Uiso   1.00
O232   O     0.09178   0.11027   0.40166   0.01267  Uiso   1.00
O233   O     0.11130   0.11350   0.20808   0.01267  Uiso   1.00
O234   O     0.23752   0.12171   0.24338   0.01267  Uiso   1.00
O235   O     0.36577   0.22775   0.25412   0.01267  Uiso   1.00
O236   O     0.30710   0.21669   0.42384   0.01267  Uiso   1.00
O237   O     0.18940   0.21703   0.50728   0.01267  Uiso   1.00
O238   O     0.08014   0.22513   0.40497   0.01267  Uiso   1.00
O239   O     0.11141   0.22318   0.21447   0.01267  Uiso   1.00
O240   O     0.23680   0.21556   0.26012   0.01267  Uiso   1.00
O241   O     0.32358   0.16765   0.29538   0.01267  Uiso   1.00
O242   O     0.08066   0.16779   0.30958   0.01267  Uiso   1.00
O243   O     0.42643   0.07920   0.08094   0.01267  Uiso   1.00
O244   O     0.41111   0.14458   0.07177   0.01267  Uiso   1.00
O245   O     0.39586   0.21026   0.06929   0.01267  Uiso   1.00
O246   O     0.19688   0.07879   0.10731   0.01267  Uiso   1.00
O247   O     0.18509   0.14380   0.07560   0.01267  Uiso   1.00
O248   O     0.19830   0.20977   0.07307   0.01267  Uiso   1.00
O249   O     0.99252   0.11972   0.27787   0.01267  Uiso   1.00
O250   O     0.98882   0.21322   0.27206   0.01267  Uiso   1.00
O251   O     0.12952   0.17283   0.73687   0.01267  Uiso   1.00
O252   O     0.19133   0.17651   0.90668   0.01267  Uiso   1.00
O253   O     0.29731   0.17037   0.02039   0.01267  Uiso   1.00
O254   O     0.40153   0.17718   0.90311   0.01267  Uiso   1.00
O255   O     0.38389   0.17098   0.71011   0.01267  Uiso   1.00
O256   O     0.25804   0.16096   0.74563   0.01267  Uiso   1.00
O257   O     0.13216   0.06023   0.75018   0.01267  Uiso   1.00
O258   O     0.19422   0.06180   0.91798   0.01267  Uiso   1.00
O259   O     0.30767   0.06700   0.01183   0.01267  Uiso   1.00
O260   O     0.41135   0.05836   0.89573   0.01267  Uiso   1.00
O261   O     0.38586   0.06716   0.70582   0.01267  Uiso   1.00
O262   O     0.26055   0.07445   0.75316   0.01267  Uiso   1.00
O263   O     0.17403   0.11783   0.82071   0.01267  Uiso   1.00
O264   O     0.41765   0.11853   0.81967   0.01267  Uiso   1.00
O265   O     0.07373   0.20701   0.59298   0.01267  Uiso   1.00
O266   O     0.08911   0.14216   0.57235   0.01267  Uiso   1.00
O267   O     0.10261   0.07664   0.56568   0.01267  Uiso   1.00
O268   O     0.29593   0.20680   0.61586   0.01267  Uiso   1.00
O269   O     0.31039   0.14273   0.57395   0.01267  Uiso   1.00
O270   O     0.29798   0.07684   0.56472   0.01267  Uiso   1.00
O271   O     0.50259   0.16715   0.78111   0.01267  Uiso   1.00
O272   O     0.50743   0.07290   0.77153   0.01267  Uiso   1.00
O273   O     0.43098   0.26863   0.13792   0.01267  Uiso   1.00
O274   O     0.19848   0.26848   0.15805   0.01267  Uiso   1.00
O275   O     0.27368   0.26617   0.54456   0.01267  Uiso   1.00
O276   O     0.10813   0.26773   0.54711   0.01267  Uiso   1.00
O277   O     0.06755   0.01850   0.63463   0.01267  Uiso   1.00
O278   O     0.29908   0.01996   0.66000   0.01267  Uiso   1.00
O279   O     0.22475   0.01764   0.05542   0.01267  Uiso   1.00
O280   O     0.39224   0.01713   0.04197   0.01267  Uiso   1.00
O281   O     0.56460   0.01793   0.83981   0.01267  Uiso   1.00
O282   O     0.80189   0.01830   0.82668   0.01267  Uiso   1.00
O283   O     0.72359   0.01761   0.42736   0.01267  Uiso   1.00
O284   O     0.89006   0.01801   0.42950   0.01267  Uiso   1.00
O285   O     0.93271   0.26813   0.34239   0.01267  Uiso   1.00
O286   O     0.69601   0.26852   0.32701   0.01267  Uiso   1.00
O287   O     0.77526   0.26768   0.92582   0.01267  Uiso   1.00
O288   O     0.60882   0.26756   0.93092   0.01267  Uiso   1.00
Si289  Si    0.42356   0.92086   0.14588   0.01267  Uiso   1.00
Si290  Si    0.30742   0.90818   0.29663   0.01267  Uiso   1.00
Si291  Si    0.28202   0.92824   0.51156   0.01267  Uiso   1.00
Si292  Si    0.12400   0.92627   0.50935   0.01267  Uiso   1.00
Si293  Si    0.07352   0.90721   0.29908   0.01267  Uiso   1.00
Si294  Si    0.18537   0.91970   0.15034   0.01267  Uiso   1.00
Si295  Si    0.42317   0.80792   0.15981   0.01267  Uiso   1.00
Si296  Si    0.30582   0.82964   0.30417   0.01267  Uiso   1.00
Si297  Si    0.26876   0.80515   0.51350   0.01267  Uiso   1.00
Si298  Si    0.11516   0.80569   0.50785   0.01267  Uiso   1.00
Si299  Si    0.06605   0.82849   0.29932   0.01267  Uiso   1.00
Si300  Si    0.18502   0.80796   0.16983   0.01267  Uiso   1.00
Si301  Si    0.07803   0.86525   0.64242   0.01267  Uiso   1.00
Si302  Si    0.19332   0.87977   0.79432   0.01267  Uiso   1.00
Si303  Si    0.21857   0.85935   0.00891   0.01267  Uiso   1.00
Si304  Si    0.37763   0.86009   0.00831   0.01267  Uiso   1.00
Si305  Si    0.43293   0.87846   0.79761   0.01267  Uiso   1.00
Si306  Si    0.07772   0.97952   0.66022   0.01267  Uiso   1.00
Si307  Si    0.19213   0.95809   0.80568   0.01267  Uiso   1.00
Si308  Si    0.22973   0.97922   0.01995   0.01267  Uiso   1.00
Si309  Si    0.38354   0.97860   0.00968   0.01267  Uiso   1.00
Si310  Si    0.43072   0.95724   0.79319   0.01267  Uiso   1.00
Si311  Si    0.31177   0.98037   0.66953   0.01267  Uiso   1.00
Si312  Si    0.57420   0.67132   0.83147   0.01267  Uiso   1.00
Si313  Si    0.69002   0.65709   0.68193   0.01267  Uiso   1.00
Si314  Si    0.71827   0.67536   0.46435   0.01267  Uiso   1.00
Si315  Si    0.87658   0.67566   0.46660   0.01267  Uiso   1.00
Si316  Si    0.92662   0.65720   0.67851   0.01267  Uiso   1.00
Si317  Si    0.81309   0.67044   0.82360   0.01267  Uiso   1.00
Si318  Si    0.57487   0.55702   0.81573   0.01267  Uiso   1.00
Si319  Si    0.69185   0.57816   0.67314   0.01267  Uiso   1.00
Si320  Si    0.72965   0.55629   0.45930   0.01267  Uiso   1.00
Si321  Si    0.88321   0.55602   0.46763   0.01267  Uiso   1.00
Si322  Si    0.93161   0.57841   0.67828   0.01267  Uiso   1.00
Si323  Si    0.81349   0.55766   0.80891   0.01267  Uiso   1.00
Si324  Si    0.92229   0.61457   0.33207   0.01267  Uiso   1.00
Si325  Si    0.80573   0.62894   0.18515   0.01267  Uiso   1.00
Si326  Si    0.77823   0.61071   0.96545   0.01267  Uiso   1.00
Si327  Si    0.61968   0.61018   0.96700   0.01267  Uiso   1.00
Si328  Si    0.56992   0.62802   0.18099   0.01267  Uiso   1.00
Si329  Si    0.68265   0.61505   0.32628   0.01267  Uiso   1.00
Si330  Si    0.92145   0.72936   0.31565   0.01267  Uiso   1.00
Si331  Si    0.80626   0.70818   0.17216   0.01267  Uiso   1.00
Si332  Si    0.76908   0.72893   0.95729   0.01267  Uiso   1.00
Si333  Si    0.61538   0.72926   0.96803   0.01267  Uiso   1.00
Si334  Si    0.56569   0.70740   0.18037   0.01267  Uiso   1.00
Si335  Si    0.68488   0.72924   0.30689   0.01267  Uiso   1.00
Si336  Si    0.57953   0.86393   0.83388   0.01267  Uiso   1.00
Si337  Si    0.69390   0.87859   0.68447   0.01267  Uiso   1.00
Si338  Si    0.72060   0.86151   0.46456   0.01267  Uiso   1.00
Si339  Si    0.87875   0.86086   0.46655   0.01267  Uiso   1.00
Si340  Si    0.93020   0.87844   0.67847   0.01267  Uiso   1.00
Si341  Si    0.81754   0.86492   0.82260   0.01267  Uiso   1.00
Si342  Si    0.57619   0.97927   0.81215   0.01267  Uiso   1.00
Si343  Si    0.69202   0.95773   0.67136   0.01267  Uiso   1.00
Si344  Si    0.73038   0.97858   0.45523   0.01267  Uiso   1.00
Si345  Si    0.88399   0.97960   0.46452   0.01267  Uiso   1.00
Si346  Si    0.93255   0.95753   0.67687   0.01267  Uiso   1.00
Si347  Si    0.81401   0.97917   0.80588   0.01267  Uiso   1.00
Si348  Si    0.92551   0.92146   0.33023   0.01267  Uiso   1.00
Si349  Si    0.80941   0.90694   0.18145   0.01267  Uiso   1.00
Si350  Si    0.78189   0.92515   0.96267   0.01267  Uiso   1.00
Si351  Si    0.62358   0.92603   0.96465   0.01267  Uiso   1.00
Si352  Si    0.57272   0.90731   0.17495   0.01267  Uiso   1.00
Si353  Si    0.68524   0.92064   0.32131   0.01267  Uiso   1.00
Si354  Si    0.92193   0.80690   0.31515   0.01267  Uiso   1.00
Si355  Si    0.80731   0.82791   0.17064   0.01267  Uiso   1.00
Si356  Si    0.77001   0.80652   0.95600   0.01267  Uiso   1.00
Si357  Si    0.61670   0.80561   0.96859   0.01267  Uiso   1.00
Si358  Si    0.56878   0.82873   0.17813   0.01267  Uiso   1.00
Si359  Si    0.68648   0.80790   0.30783   0.01267  Uiso   1.00
Si360  Si    0.42338   0.61326   0.14502   0.01267  Uiso   1.00
Si361  Si    0.30898   0.62803   0.29235   0.01267  Uiso   1.00
Si362  Si    0.27921   0.61193   0.51277   0.01267  Uiso   1.00
Si363  Si    0.12120   0.61140   0.51230   0.01267  Uiso   1.00
Si364  Si    0.06913   0.62803   0.29977   0.01267  Uiso   1.00
Si365  Si    0.18357   0.61453   0.15801   0.01267  Uiso   1.00
Si366  Si    0.42040   0.72998   0.16715   0.01267  Uiso   1.00
Si367  Si    0.30786   0.70688   0.30826   0.01267  Uiso   1.00
Si368  Si    0.26637   0.72700   0.52229   0.01267  Uiso   1.00
Si369  Si    0.11320   0.72927   0.51283   0.01267  Uiso   1.00
Si370  Si    0.06554   0.70718   0.30041   0.01267  Uiso   1.00
Si371  Si    0.18626   0.72924   0.17648   0.01267  Uiso   1.00
Si372  Si    0.07457   0.67173   0.65058   0.01267  Uiso   1.00
Si373  Si    0.18828   0.65699   0.80209   0.01267  Uiso   1.00
Si374  Si    0.21813   0.67519   0.01924   0.01267  Uiso   1.00
Si375  Si    0.37613   0.67553   0.01630   0.01267  Uiso   1.00
Si376  Si    0.42624   0.65829   0.80389   0.01267  Uiso   1.00
Si377  Si    0.31127   0.67035   0.66098   0.01267  Uiso   1.00
Si378  Si    0.07765   0.55711   0.66369   0.01267  Uiso   1.00
Si379  Si    0.19057   0.57860   0.80975   0.01267  Uiso   1.00
Si380  Si    0.23080   0.55626   0.02280   0.01267  Uiso   1.00
Si381  Si    0.38425   0.55553   0.00784   0.01267  Uiso   1.00
Si382  Si    0.43052   0.57946   0.79794   0.01267  Uiso   1.00
Si383  Si    0.31085   0.55941   0.67113   0.01267  Uiso   1.00
Al384  Al    0.31248   0.86625   0.64555   0.01267  Uiso   1.00
O385   O     0.37016   0.92119   0.23376   0.01267  Uiso   1.00
O386   O     0.30207   0.93052   0.39522   0.01267  Uiso   1.00
O387   O     0.20261   0.92255   0.52070   0.01267  Uiso   1.00
O388   O     0.10240   0.92686   0.39416   0.01267  Uiso   1.00
O389   O     0.11332   0.91830   0.20103   0.01267  Uiso   1.00
O390   O     0.24095   0.91258   0.23275   0.01267  Uiso   1.00
O391   O     0.36595   0.81488   0.23945   0.01267  Uiso   1.00
O392   O     0.30606   0.80941   0.40727   0.01267  Uiso   1.00
O393   O     0.19203   0.81604   0.49882   0.01267  Uiso   1.00
O394   O     0.08151   0.80798   0.39957   0.01267  Uiso   1.00
O395   O     0.11062   0.81441   0.20909   0.01267  Uiso   1.00
O396   O     0.23631   0.82418   0.24796   0.01267  Uiso   1.00
O397   O     0.31683   0.86902   0.32331   0.01267  Uiso   1.00
O398   O     0.08125   0.86751   0.31771   0.01267  Uiso   1.00
O399   O     0.42383   0.95619   0.08831   0.01267  Uiso   1.00
O400   O     0.40768   0.89162   0.06685   0.01267  Uiso   1.00
O401   O     0.40508   0.82579   0.05562   0.01267  Uiso   1.00
O402   O     0.19453   0.95636   0.10264   0.01267  Uiso   1.00
O403   O     0.18964   0.89173   0.06496   0.01267  Uiso   1.00
O404   O     0.19495   0.82532   0.06284   0.01267  Uiso   1.00
O405   O     0.99692   0.91650   0.28000   0.01267  Uiso   1.00
O406   O     0.98909   0.82305   0.27105   0.01267  Uiso   1.00
O407   O     0.13499   0.86506   0.72486   0.01267  Uiso   1.00
O408   O     0.19054   0.85902   0.89772   0.01267  Uiso   1.00
O409   O     0.29856   0.86124   0.01072   0.01267  Uiso   1.00
O410   O     0.40433   0.86115   0.89537   0.01267  Uiso   1.00
O411   O     0.39599   0.86036   0.70042   0.01267  Uiso   1.00
O412   O     0.26411   0.87571   0.74500   0.01267  Uiso   1.00
O413   O     0.13359   0.97574   0.74417   0.01267  Uiso   1.00
O414   O     0.19398   0.97519   0.91395   0.01267  Uiso   1.00
O415   O     0.30650   0.96797   0.01015   0.01267  Uiso   1.00
O416   O     0.41306   0.97280   0.89992   0.01267  Uiso   1.00
O417   O     0.38702   0.97424   0.70728   0.01267  Uiso   1.00
O418   O     0.26226   0.96431   0.75085   0.01267  Uiso   1.00
O419   O     0.17764   0.91883   0.81703   0.01267  Uiso   1.00
O420   O     0.41588   0.91732   0.79347   0.01267  Uiso   1.00
O421   O     0.07756   0.82997   0.58439   0.01267  Uiso   1.00
O422   O     0.08811   0.89515   0.56326   0.01267  Uiso   1.00
O423   O     0.09927   0.96081   0.55915   0.01267  Uiso   1.00
O424   O     0.30342   0.82728   0.59575   0.01267  Uiso   1.00
O425   O     0.32043   0.89839   0.56353   0.01267  Uiso   1.00
O426   O     0.30039   0.96399   0.56184   0.01267  Uiso   1.00
O427   O     0.50938   0.86998   0.77942   0.01267  Uiso   1.00
O428   O     0.50826   0.96308   0.77061   0.01267  Uiso   1.00
O429   O     0.62960   0.67193   0.74584   0.01267  Uiso   1.00
O430   O     0.69271   0.67683   0.57761   0.01267  Uiso   1.00
O431   O     0.79754   0.67128   0.46045   0.01267  Uiso   1.00
O432   O     0.90068   0.67625   0.58027   0.01267  Uiso   1.00
O433   O     0.88535   0.66975   0.77371   0.01267  Uiso   1.00
O434   O     0.75870   0.66259   0.73963   0.01267  Uiso   1.00
O435   O     0.63261   0.56115   0.73447   0.01267  Uiso   1.00
O436   O     0.69299   0.56158   0.56443   0.01267  Uiso   1.00
O437   O     0.80634   0.56727   0.46960   0.01267  Uiso   1.00
O438   O     0.91307   0.55851   0.57808   0.01267  Uiso   1.00
O439   O     0.88774   0.56421   0.76928   0.01267  Uiso   1.00
O440   O     0.76176   0.57176   0.72758   0.01267  Uiso   1.00
O441   O     0.67900   0.61773   0.66334   0.01267  Uiso   1.00
O442   O     0.91646   0.61756   0.66230   0.01267  Uiso   1.00
O443   O     0.57555   0.70644   0.89025   0.01267  Uiso   1.00
O444   O     0.58653   0.64123   0.90911   0.01267  Uiso   1.00
O445   O     0.59526   0.57554   0.91789   0.01267  Uiso   1.00
O446   O     0.80142   0.70709   0.86978   0.01267  Uiso   1.00
O447   O     0.80975   0.64282   0.91064   0.01267  Uiso   1.00
O448   O     0.80276   0.57657   0.91349   0.01267  Uiso   1.00
O449   O     0.00304   0.66574   0.70008   0.01267  Uiso   1.00
O450   O     0.00876   0.57277   0.70351   0.01267  Uiso   1.00
O451   O     0.86528   0.61317   0.24885   0.01267  Uiso   1.00
O452   O     0.80260   0.61037   0.07917   0.01267  Uiso   1.00
O453   O     0.69880   0.61333   0.95883   0.01267  Uiso   1.00
O454   O     0.59715   0.61034   0.08133   0.01267  Uiso   1.00
O455   O     0.61050   0.61466   0.27587   0.01267  Uiso   1.00
O456   O     0.73660   0.62325   0.24172   0.01267  Uiso   1.00
O457   O     0.86480   0.72614   0.23229   0.01267  Uiso   1.00
O458   O     0.80721   0.72253   0.06051   0.01267  Uiso   1.00
O459   O     0.69226   0.71829   0.97081   0.01267  Uiso   1.00
O460   O     0.58392   0.72573   0.07717   0.01267  Uiso   1.00
O461   O     0.61036   0.72274   0.26857   0.01267  Uiso   1.00
O462   O     0.73557   0.71625   0.22255   0.01267  Uiso   1.00
O463   O     0.81809   0.66842   0.17044   0.01267  Uiso   1.00
O464   O     0.57918   0.66792   0.16951   0.01267  Uiso   1.00
O465   O     0.92346   0.57981   0.39262   0.01267  Uiso   1.00
O466   O     0.91065   0.64490   0.40897   0.01267  Uiso   1.00
O467   O     0.89863   0.71046   0.41608   0.01267  Uiso   1.00
O468   O     0.69538   0.57884   0.37487   0.01267  Uiso   1.00
O469   O     0.68478   0.64357   0.41081   0.01267  Uiso   1.00
O470   O     0.69705   0.70968   0.41002   0.01267  Uiso   1.00
O471   O     0.49349   0.61849   0.19953   0.01267  Uiso   1.00
O472   O     0.48907   0.71418   0.20681   0.01267  Uiso   1.00
O473   O     0.63662   0.86169   0.75115   0.01267  Uiso   1.00
O474   O     0.69401   0.86051   0.57748   0.01267  Uiso   1.00
O475   O     0.79969   0.86550   0.46177   0.01267  Uiso   1.00
O476   O     0.90304   0.85999   0.57996   0.01267  Uiso   1.00
O477   O     0.89032   0.86480   0.77422   0.01267  Uiso   1.00
O478   O     0.76462   0.87309   0.73627   0.01267  Uiso   1.00
O479   O     0.63213   0.97626   0.72746   0.01267  Uiso   1.00
O480   O     0.69320   0.97090   0.55867   0.01267  Uiso   1.00
O481   O     0.80727   0.96799   0.46542   0.01267  Uiso   1.00
O482   O     0.91408   0.97598   0.57431   0.01267  Uiso   1.00
O483   O     0.88799   0.97305   0.76506   0.01267  Uiso   1.00
O484   O     0.76173   0.96588   0.72413   0.01267  Uiso   1.00
O485   O     0.67919   0.91795   0.67333   0.01267  Uiso   1.00
O486   O     0.91799   0.91812   0.66625   0.01267  Uiso   1.00
O487   O     0.57506   0.82921   0.89435   0.01267  Uiso   1.00
O488   O     0.59063   0.89427   0.91015   0.01267  Uiso   1.00
O489   O     0.59977   0.96003   0.91154   0.01267  Uiso   1.00
O490   O     0.80363   0.82853   0.86972   0.01267  Uiso   1.00
O491   O     0.81343   0.89299   0.90831   0.01267  Uiso   1.00
O492   O     0.80450   0.95934   0.90926   0.01267  Uiso   1.00
O493   O     0.00707   0.87012   0.69561   0.01267  Uiso   1.00
O494   O     0.00933   0.96394   0.70252   0.01267  Uiso   1.00
O495   O     0.86959   0.92195   0.24515   0.01267  Uiso   1.00
O496   O     0.80699   0.92598   0.07601   0.01267  Uiso   1.00
O497   O     0.70245   0.92222   0.95807   0.01267  Uiso   1.00
O498   O     0.59945   0.92702   0.07829   0.01267  Uiso   1.00
O499   O     0.61297   0.91970   0.27119   0.01267  Uiso   1.00
O500   O     0.74015   0.91254   0.23808   0.01267  Uiso   1.00
O501   O     0.86517   0.80988   0.23184   0.01267  Uiso   1.00
O502   O     0.80690   0.81260   0.06031   0.01267  Uiso   1.00
O503   O     0.69311   0.81735   0.96676   0.01267  Uiso   1.00
O504   O     0.58828   0.80790   0.07994   0.01267  Uiso   1.00
O505   O     0.61172   0.81560   0.27151   0.01267  Uiso   1.00
O506   O     0.73661   0.82106   0.22305   0.01267  Uiso   1.00
O507   O     0.82062   0.86748   0.16491   0.01267  Uiso   1.00
O508   O     0.58377   0.86770   0.15803   0.01267  Uiso   1.00
O509   O     0.92471   0.95678   0.38767   0.01267  Uiso   1.00
O510   O     0.91269   0.89166   0.40879   0.01267  Uiso   1.00
O511   O     0.89943   0.82602   0.41523   0.01267  Uiso   1.00
O512   O     0.69681   0.95732   0.36726   0.01267  Uiso   1.00
O513   O     0.68774   0.89297   0.40857   0.01267  Uiso   1.00
O514   O     0.69925   0.82689   0.41184   0.01267  Uiso   1.00
O515   O     0.49566   0.91497   0.19339   0.01267  Uiso   1.00
O516   O     0.49171   0.82282   0.20365   0.01267  Uiso   1.00
O517   O     0.36589   0.61020   0.22742   0.01267  Uiso   1.00
O518   O     0.30967   0.61218   0.40225   0.01267  Uiso   1.00
O519   O     0.20009   0.61635   0.50878   0.01267  Uiso   1.00
O520   O     0.09178   0.61027   0.40166   0.01267  Uiso   1.00
O521   O     0.11130   0.61350   0.20808   0.01267  Uiso   1.00
O522   O     0.23752   0.62171   0.24338   0.01267  Uiso   1.00
O523   O     0.36577   0.72775   0.25412   0.01267  Uiso   1.00
O524   O     0.30710   0.71669   0.42384   0.01267  Uiso   1.00
O525   O     0.18940   0.71703   0.50728   0.01267  Uiso   1.00
O526   O     0.08014   0.72513   0.40497   0.01267  Uiso   1.00
O527   O     0.11141   0.72318   0.21447   0.01267  Uiso   1.00
O528   O     0.23680   0.71556   0.26012   0.01267  Uiso   1.00
O529   O     0.32358   0.66765   0.29538   0.01267  Uiso   1.00
O530   O     0.08066   0.66779   0.30958   0.01267  Uiso   1.00
O531   O     0.42643   0.57920   0.08094   0.01267  Uiso   1.00
O532   O     0.41111   0.64458   0.07177   0.01267  Uiso   1.00
O533   O     0.39586   0.71026   0.06929   0.01267  Uiso   1.00
O534   O     0.19688   0.57879   0.10731   0.01267  Uiso   1.00
O535   O     0.18509   0.64380   0.07560   0.01267  Uiso   1.00
O536   O     0.19830   0.70977   0.07307   0.01267  Uiso   1.00
O537   O     0.99252   0.61972   0.27787   0.01267  Uiso   1.00
O538   O     0.98882   0.71322   0.27206   0.01267  Uiso   1.00
O539   O     0.12952   0.67283   0.73687   0.01267  Uiso   1.00
O540   O     0.19133   0.67651   0.90668   0.01267  Uiso   1.00
O541   O     0.29731   0.67037   0.02039   0.01267  Uiso   1.00
O542   O     0.40153   0.67718   0.90311   0.01267  Uiso   1.00
O543   O     0.38389   0.67098   0.71011   0.01267  Uiso   1.00
O544   O     0.25804   0.66096   0.74563   0.01267  Uiso   1.00
O545   O     0.13216   0.56023   0.75018   0.01267  Uiso   1.00
O546   O     0.19422   0.56180   0.91798   0.01267  Uiso   1.00
O547   O     0.30767   0.56700   0.01183   0.01267  Uiso   1.00
O548   O     0.41135   0.55836   0.89573   0.01267  Uiso   1.00
O549   O     0.38586   0.56716   0.70582   0.01267  Uiso   1.00
O550   O     0.26055   0.57445   0.75316   0.01267  Uiso   1.00
O551   O     0.17403   0.61783   0.82071   0.01267  Uiso   1.00
O552   O     0.41765   0.61853   0.81967   0.01267  Uiso   1.00
O553   O     0.07373   0.70701   0.59298   0.01267  Uiso   1.00
O554   O     0.08911   0.64216   0.57235   0.01267  Uiso   1.00
O555   O     0.10261   0.57664   0.56568   0.01267  Uiso   1.00
O556   O     0.29593   0.70680   0.61586   0.01267  Uiso   1.00
O557   O     0.31039   0.64273   0.57395   0.01267  Uiso   1.00
O558   O     0.29798   0.57684   0.56472   0.01267  Uiso   1.00
O559   O     0.50259   0.66715   0.78111   0.01267  Uiso   1.00
O560   O     0.50743   0.57290   0.77153   0.01267  Uiso   1.00
O561   O     0.43098   0.76863   0.13792   0.01267  Uiso   1.00
O562   O     0.19848   0.76848   0.15805   0.01267  Uiso   1.00
O563   O     0.27368   0.76617   0.54456   0.01267  Uiso   1.00
O564   O     0.10813   0.76773   0.54711   0.01267  Uiso   1.00
O565   O     0.06755   0.51850   0.63463   0.01267  Uiso   1.00
O566   O     0.29908   0.51996   0.66000   0.01267  Uiso   1.00
O567   O     0.22475   0.51764   0.05542   0.01267  Uiso   1.00
O568   O     0.39224   0.51713   0.04197   0.01267  Uiso   1.00
O569   O     0.56460   0.51792   0.83981   0.01267  Uiso   1.00
O570   O     0.80189   0.51830   0.82668   0.01267  Uiso   1.00
O571   O     0.72359   0.51761   0.42736   0.01267  Uiso   1.00
O572   O     0.89006   0.51801   0.42950   0.01267  Uiso   1.00
O573   O     0.93271   0.76813   0.34239   0.01267  Uiso   1.00
O574   O     0.69601   0.76852   0.32701   0.01267  Uiso   1.00
O575   O     0.77526   0.76768   0.92582   0.01267  Uiso   1.00
O576   O     0.60882   0.76756   0.93092   0.01267  Uiso   1.00
H577   H     0.41583   0.83854   0.68051   0.01267  Uiso   1.00
H578   H     0.62228   0.79577   0.59705   0.01267  Uiso   1.00
H579   H     0.54353   0.77662   0.74237   0.01267  Uiso   1.00
H580   H     0.55445   0.81523   0.44124   0.01267  Uiso   1.00
H581   H     0.42643   0.81033   0.47260   0.01267  Uiso   1.00
C582   C     0.53239   0.80648   0.50954   0.01267  Uiso   1.00
C583   C     0.46588   0.80431   0.52334   0.01267  Uiso   1.00
C584   C     0.56891   0.79585   0.59365   0.01267  Uiso   1.00
C585   C     0.52950   0.78592   0.67021   0.01267  Uiso   1.00
S586   S     0.44769   0.78892   0.63906   0.01267  Uiso   1.00
loop_
_geom_bond_atom_site_label_1
_geom_bond_atom_site_label_2
_geom_bond_distance
_geom_bond_site_symmetry_2
_ccdc_geom_bond_type
Si1    O97     1.614   .     S
Si1    O111    1.625   .     S
Si1    O112    1.627   .     S
Si1    O227    1.623   .     S
Si2    O97     1.623   .     S
Si2    O98     1.618   .     S
Si2    O102    1.619   .     S
Si2    O109    1.631   .     S
Si3    O98     1.633   .     S
Si3    O99     1.639   .     S
Si3    O137    1.600   .     S
Si3    O138    1.639   .     S
Si4    O99     1.617   .     S
Si4    O100    1.625   .     S
Si4    O134    1.626   .     S
Si4    O135    1.629   .     S
Si5    O100    1.626   .     S
Si5    O101    1.621   .     S
Si5    O110    1.628   .     S
Si5    O117    1.627   1_455 S
Si6    O101    1.622   .     S
Si6    O102    1.619   .     S
Si6    O114    1.624   .     S
Si6    O115    1.621   .     S
Si7    O103    1.614   .     S
Si7    O113    1.629   .     S
Si7    O228    1.634   .     S
Si7    O273    1.620   .     S
Si8    O103    1.621   .     S
Si8    O104    1.619   .     S
Si8    O108    1.625   .     S
Si8    O109    1.625   .     S
Si9    O104    1.638   .     S
Si9    O105    1.637   .     S
Si9    O136    1.595   .     S
Si9    O275    1.630   .     S
Si10   O105    1.626   .     S
Si10   O106    1.625   .     S
Si10   O133    1.621   .     S
Si10   O276    1.627   .     S
Si11   O106    1.623   .     S
Si11   O107    1.627   .     S
Si11   O110    1.623   .     S
Si11   O118    1.630   1_455 S
Si12   O107    1.628   .     S
Si12   O108    1.628   .     S
Si12   O116    1.624   .     S
Si12   O274    1.624   .     S
Si13   O119    1.613   .     S
Si13   O133    1.627   .     S
Si13   O134    1.627   .     S
Si13   O205    1.628   .     S
Si14   O119    1.630   .     S
Si14   O120    1.634   .     S
Si14   O124    1.598   .     S
Si14   O131    1.637   .     S
Si15   O115    1.623   .     S
Si15   O116    1.627   .     S
Si15   O120    1.614   1_554 S
Si15   O121    1.632   .     S
Si16   O112    1.621   .     S
Si16   O113    1.624   .     S
Si16   O121    1.613   .     S
Si16   O122    1.627   1_554 S
Si17   O122    1.608   .     S
Si17   O123    1.687   .     S
Si17   O132    1.606   .     S
Si17   O139    1.614   .     S
Si18   O125    1.619   .     S
Si18   O135    1.627   .     S
Si18   O206    1.632   .     S
Si18   O565    1.623   .     S
Si19   O125    1.621   .     S
Si19   O126    1.625   .     S
Si19   O130    1.630   .     S
Si19   O131    1.618   .     S
Si20   O114    1.619   .     S
Si20   O126    1.622   1_554 S
Si20   O127    1.635   .     S
Si20   O567    1.626   .     S
Si21   O111    1.622   .     S
Si21   O127    1.628   .     S
Si21   O128    1.623   1_554 S
Si21   O568    1.625   .     S
Si22   O128    1.620   .     S
Si22   O129    1.620   .     S
Si22   O132    1.638   .     S
Si22   O140    1.627   .     S
Si23   O129    1.636   .     S
Si23   O130    1.629   .     S
Si23   O138    1.622   .     S
Si23   O566    1.622   .     S
Si24   O141    1.620   .     S
Si24   O155    1.626   .     S
Si24   O156    1.626   .     S
Si24   O271    1.621   .     S
Si25   O141    1.621   .     S
Si25   O142    1.625   .     S
Si25   O146    1.620   .     S
Si25   O153    1.623   .     S
Si26   O142    1.624   .     S
Si26   O143    1.625   .     S
Si26   O181    1.625   .     S
Si26   O182    1.627   .     S
Si27   O143    1.623   .     S
Si27   O144    1.620   .     S
Si27   O178    1.623   .     S
Si27   O179    1.625   .     S
Si28   O144    1.627   .     S
Si28   O145    1.623   .     S
Si28   O154    1.627   .     S
Si28   O161    1.622   1_655 S
Si29   O145    1.621   .     S
Si29   O146    1.622   .     S
Si29   O158    1.623   .     S
Si29   O159    1.625   .     S
Si30   O147    1.621   .     S
Si30   O157    1.630   .     S
Si30   O272    1.631   .     S
Si30   O281    1.623   .     S
Si31   O147    1.618   .     S
Si31   O148    1.621   .     S
Si31   O152    1.626   .     S
Si31   O153    1.623   .     S
Si32   O148    1.625   .     S
Si32   O149    1.631   .     S
Si32   O180    1.621   .     S
Si32   O283    1.624   .     S
Si33   O149    1.631   .     S
Si33   O150    1.622   .     S
Si33   O177    1.621   .     S
Si33   O284    1.624   .     S
Si34   O150    1.625   .     S
Si34   O151    1.628   .     S
Si34   O154    1.624   .     S
Si34   O162    1.626   1_655 S
Si35   O151    1.627   .     S
Si35   O152    1.630   .     S
Si35   O160    1.627   .     S
Si35   O282    1.623   .     S
Si36   O163    1.622   .     S
Si36   O177    1.625   .     S
Si36   O178    1.626   .     S
Si36   O249    1.622   .     S
Si37   O163    1.621   .     S
Si37   O164    1.624   .     S
Si37   O168    1.620   .     S
Si37   O175    1.624   .     S
Si38   O159    1.625   .     S
Si38   O160    1.626   .     S
Si38   O164    1.622   1_556 S
Si38   O165    1.625   .     S
Si39   O156    1.626   .     S
Si39   O157    1.627   .     S
Si39   O165    1.621   .     S
Si39   O166    1.618   1_556 S
Si40   O166    1.627   .     S
Si40   O167    1.623   .     S
Si40   O176    1.628   .     S
Si40   O183    1.624   .     S
Si41   O167    1.623   .     S
Si41   O168    1.622   .     S
Si41   O180    1.623   .     S
Si41   O181    1.626   .     S
Si42   O169    1.623   .     S
Si42   O179    1.629   .     S
Si42   O250    1.631   .     S
Si42   O285    1.622   .     S
Si43   O169    1.618   .     S
Si43   O170    1.622   .     S
Si43   O174    1.628   .     S
Si43   O175    1.622   .     S
Si44   O158    1.619   .     S
Si44   O170    1.623   1_556 S
Si44   O171    1.633   .     S
Si44   O287    1.625   .     S
Si45   O155    1.620   .     S
Si45   O171    1.629   .     S
Si45   O172    1.620   1_556 S
Si45   O288    1.630   .     S
Si46   O172    1.626   .     S
Si46   O173    1.627   .     S
Si46   O176    1.622   .     S
Si46   O184    1.625   .     S
Si47   O173    1.627   .     S
Si47   O174    1.628   .     S
Si47   O182    1.625   .     S
Si47   O286    1.624   .     S
Si48   O139    1.628   .     S
Si48   O185    1.619   .     S
Si48   O199    1.625   .     S
Si48   O200    1.620   .     S
Si49   O185    1.626   .     S
Si49   O186    1.626   .     S
Si49   O190    1.620   .     S
Si49   O197    1.623   .     S
Si50   O186    1.626   .     S
Si50   O187    1.620   .     S
Si50   O225    1.624   .     S
Si50   O226    1.629   .     S
Si51   O187    1.624   .     S
Si51   O188    1.618   .     S
Si51   O222    1.623   .     S
Si51   O223    1.624   .     S
Si52   O188    1.628   .     S
Si52   O189    1.628   .     S
Si52   O198    1.628   .     S
Si52   O205    1.619   1_655 S
Si53   O189    1.622   .     S
Si53   O190    1.627   .     S
Si53   O202    1.625   .     S
Si53   O203    1.626   .     S
Si54   O140    1.632   .     S
Si54   O191    1.623   .     S
Si54   O201    1.629   .     S
Si54   O569    1.621   .     S
Si55   O191    1.621   .     S
Si55   O192    1.619   .     S
Si55   O196    1.626   .     S
Si55   O197    1.625   .     S
Si56   O192    1.624   .     S
Si56   O193    1.630   .     S
Si56   O224    1.623   .     S
Si56   O571    1.624   .     S
Si57   O193    1.632   .     S
Si57   O194    1.619   .     S
Si57   O221    1.620   .     S
Si57   O572    1.625   .     S
Si58   O194    1.622   .     S
Si58   O195    1.628   .     S
Si58   O198    1.624   .     S
Si58   O206    1.624   1_655 S
Si59   O195    1.625   .     S
Si59   O196    1.630   .     S
Si59   O204    1.626   .     S
Si59   O570    1.622   .     S
Si60   O117    1.619   .     S
Si60   O207    1.624   .     S
Si60   O221    1.625   .     S
Si60   O222    1.627   .     S
Si61   O207    1.619   .     S
Si61   O208    1.624   .     S
Si61   O212    1.623   .     S
Si61   O219    1.624   .     S
Si62   O203    1.625   .     S
Si62   O204    1.624   .     S
Si62   O208    1.622   1_556 S
Si62   O209    1.625   .     S
Si63   O200    1.625   .     S
Si63   O201    1.623   .     S
Si63   O209    1.617   .     S
Si63   O210    1.619   1_556 S
Si64   O210    1.627   .     S
Si64   O211    1.623   .     S
Si64   O220    1.630   .     S
Si64   O227    1.620   .     S
Si65   O211    1.624   .     S
Si65   O212    1.623   .     S
Si65   O224    1.623   .     S
Si65   O225    1.627   .     S
Si66   O118    1.629   .     S
Si66   O213    1.623   .     S
Si66   O223    1.628   .     S
Si66   O285    1.622   .     S
Si67   O213    1.616   .     S
Si67   O214    1.621   .     S
Si67   O218    1.630   .     S
Si67   O219    1.620   .     S
Si68   O202    1.620   .     S
Si68   O214    1.623   1_556 S
Si68   O215    1.633   .     S
Si68   O287    1.623   .     S
Si69   O199    1.625   .     S
Si69   O215    1.628   .     S
Si69   O216    1.621   1_556 S
Si69   O288    1.626   .     S
Si70   O216    1.625   .     S
Si70   O217    1.629   .     S
Si70   O220    1.624   .     S
Si70   O228    1.626   .     S
Si71   O217    1.632   .     S
Si71   O218    1.627   .     S
Si71   O226    1.628   .     S
Si71   O286    1.621   .     S
Si72   O183    1.624   .     S
Si72   O229    1.624   .     S
Si72   O243    1.628   .     S
Si72   O244    1.626   .     S
Si73   O229    1.624   .     S
Si73   O230    1.622   .     S
Si73   O234    1.622   .     S
Si73   O241    1.626   .     S
Si74   O230    1.623   .     S
Si74   O231    1.623   .     S
Si74   O269    1.625   .     S
Si74   O270    1.626   .     S
Si75   O231    1.621   .     S
Si75   O232    1.618   .     S
Si75   O266    1.622   .     S
Si75   O267    1.622   .     S
Si76   O232    1.624   .     S
Si76   O233    1.622   .     S
Si76   O242    1.626   .     S
Si76   O249    1.625   1_455 S
Si77   O233    1.622   .     S
Si77   O234    1.624   .     S
Si77   O246    1.621   .     S
Si77   O247    1.626   .     S
Si78   O184    1.630   .     S
Si78   O235    1.624   .     S
Si78   O245    1.628   .     S
Si78   O273    1.622   .     S
Si79   O235    1.624   .     S
Si79   O236    1.618   .     S
Si79   O240    1.628   .     S
Si79   O241    1.624   .     S
Si80   O236    1.627   .     S
Si80   O237    1.632   .     S
Si80   O268    1.625   .     S
Si80   O275    1.616   .     S
Si81   O237    1.632   .     S
Si81   O238    1.621   .     S
Si81   O265    1.623   .     S
Si81   O276    1.623   .     S
Si82   O238    1.622   .     S
Si82   O239    1.627   .     S
Si82   O242    1.623   .     S
Si82   O250    1.629   1_455 S
Si83   O239    1.628   .     S
Si83   O240    1.630   .     S
Si83   O248    1.627   .     S
Si83   O274    1.621   .     S
Si84   O161    1.623   .     S
Si84   O251    1.622   .     S
Si84   O265    1.623   .     S
Si84   O266    1.625   .     S
Si85   O251    1.621   .     S
Si85   O252    1.625   .     S
Si85   O256    1.622   .     S
Si85   O263    1.625   .     S
Si86   O247    1.624   .     S
Si86   O248    1.626   .     S
Si86   O252    1.624   1_554 S
Si86   O253    1.626   .     S
Si87   O244    1.623   .     S
Si87   O245    1.626   .     S
Si87   O253    1.621   .     S
Si87   O254    1.622   1_554 S
Si88   O254    1.628   .     S
Si88   O255    1.621   .     S
Si88   O264    1.627   .     S
Si88   O271    1.626   .     S
Si89   O255    1.624   .     S
Si89   O256    1.624   .     S
Si89   O268    1.623   .     S
Si89   O269    1.625   .     S
Si90   O162    1.632   .     S
Si90   O257    1.622   .     S
Si90   O267    1.626   .     S
Si90   O277    1.620   .     S
Si91   O257    1.619   .     S
Si91   O258    1.619   .     S
Si91   O262    1.628   .     S
Si91   O263    1.625   .     S
Si92   O246    1.619   .     S
Si92   O258    1.622   1_554 S
Si92   O259    1.632   .     S
Si92   O279    1.624   .     S
Si93   O243    1.624   .     S
Si93   O259    1.629   .     S
Si93   O260    1.622   1_554 S
Si93   O280    1.624   .     S
Si94   O260    1.624   .     S
Si94   O261    1.625   .     S
Si94   O264    1.624   .     S
Si94   O272    1.630   .     S
Si95   O261    1.630   .     S
Si95   O262    1.630   .     S
Si95   O270    1.627   .     S
Si95   O278    1.616   .     S
Al96   O123    1.874   .     S
Al96   O124    1.714   .     S
Al96   O136    1.721   .     S
Al96   O137    1.716   .     S
O117   Si5     1.627   1_655 S
O118   Si11    1.630   1_655 S
O120   Si15    1.614   1_556 S
O122   Si16    1.627   1_556 S
O126   Si20    1.622   1_556 S
O128   Si21    1.623   1_556 S
O161   Si28    1.622   1_455 S
O162   Si34    1.626   1_455 S
O164   Si38    1.622   1_554 S
O166   Si39    1.618   1_554 S
O170   Si44    1.623   1_554 S
O172   Si45    1.620   1_554 S
O205   Si52    1.619   1_455 S
O206   Si58    1.624   1_455 S
O208   Si62    1.622   1_554 S
O210   Si63    1.619   1_554 S
O214   Si68    1.623   1_554 S
O216   Si69    1.621   1_554 S
O249   Si76    1.625   1_655 S
O250   Si82    1.629   1_655 S
O252   Si86    1.624   1_556 S
O254   Si87    1.622   1_556 S
O258   Si92    1.622   1_556 S
O260   Si93    1.622   1_556 S
O277   Si306   1.623   1_545 S
O278   Si311   1.622   1_545 S
O279   Si308   1.626   1_545 S
O280   Si309   1.625   1_545 S
O281   Si342   1.621   1_545 S
O282   Si347   1.622   1_545 S
O283   Si344   1.624   1_545 S
O284   Si345   1.625   1_545 S
Si289  O385    1.614   .     S
Si289  O399    1.625   .     S
Si289  O400    1.627   .     S
Si289  O515    1.623   .     S
Si290  O385    1.623   .     S
Si290  O386    1.618   .     S
Si290  O390    1.619   .     S
Si290  O397    1.631   .     S
Si291  O386    1.633   .     S
Si291  O387    1.639   .     S
Si291  O425    1.600   .     S
Si291  O426    1.639   .     S
Si292  O387    1.617   .     S
Si292  O388    1.625   .     S
Si292  O422    1.626   .     S
Si292  O423    1.629   .     S
Si293  O388    1.626   .     S
Si293  O389    1.621   .     S
Si293  O398    1.628   .     S
Si293  O405    1.627   1_455 S
Si294  O389    1.622   .     S
Si294  O390    1.619   .     S
Si294  O402    1.624   .     S
Si294  O403    1.621   .     S
Si295  O391    1.614   .     S
Si295  O401    1.629   .     S
Si295  O516    1.634   .     S
Si295  O561    1.620   .     S
Si296  O391    1.621   .     S
Si296  O392    1.619   .     S
Si296  O396    1.625   .     S
Si296  O397    1.625   .     S
Si297  O392    1.638   .     S
Si297  O393    1.637   .     S
Si297  O424    1.595   .     S
Si297  O563    1.630   .     S
Si298  O393    1.626   .     S
Si298  O394    1.625   .     S
Si298  O421    1.621   .     S
Si298  O564    1.627   .     S
Si299  O394    1.623   .     S
Si299  O395    1.627   .     S
Si299  O398    1.623   .     S
Si299  O406    1.630   1_455 S
Si300  O395    1.628   .     S
Si300  O396    1.628   .     S
Si300  O404    1.624   .     S
Si300  O562    1.624   .     S
Si301  O407    1.613   .     S
Si301  O421    1.627   .     S
Si301  O422    1.627   .     S
Si301  O493    1.628   .     S
Si302  O407    1.630   .     S
Si302  O408    1.634   .     S
Si302  O412    1.598   .     S
Si302  O419    1.637   .     S
Si303  O403    1.623   .     S
Si303  O404    1.627   .     S
Si303  O408    1.614   1_554 S
Si303  O409    1.632   .     S
Si304  O400    1.621   .     S
Si304  O401    1.624   .     S
Si304  O409    1.613   .     S
Si304  O410    1.627   1_554 S
Si305  O410    1.608   .     S
Si305  O411    1.687   .     S
Si305  O420    1.606   .     S
Si305  O427    1.614   .     S
Si306  O413    1.619   .     S
Si306  O423    1.627   .     S
Si306  O494    1.632   .     S
Si306  O277    1.623   1_565 S
Si307  O413    1.621   .     S
Si307  O414    1.625   .     S
Si307  O418    1.630   .     S
Si307  O419    1.618   .     S
Si308  O402    1.619   .     S
Si308  O414    1.622   1_554 S
Si308  O415    1.635   .     S
Si308  O279    1.626   1_565 S
Si309  O399    1.622   .     S
Si309  O415    1.628   .     S
Si309  O416    1.623   1_554 S
Si309  O280    1.625   1_565 S
Si310  O416    1.620   .     S
Si310  O417    1.620   .     S
Si310  O420    1.638   .     S
Si310  O428    1.627   .     S
Si311  O417    1.636   .     S
Si311  O418    1.629   .     S
Si311  O426    1.622   .     S
Si311  O278    1.622   1_565 S
Si312  O429    1.620   .     S
Si312  O443    1.626   .     S
Si312  O444    1.626   .     S
Si312  O559    1.621   .     S
Si313  O429    1.621   .     S
Si313  O430    1.625   .     S
Si313  O434    1.620   .     S
Si313  O441    1.623   .     S
Si314  O430    1.624   .     S
Si314  O431    1.625   .     S
Si314  O469    1.625   .     S
Si314  O470    1.627   .     S
Si315  O431    1.623   .     S
Si315  O432    1.620   .     S
Si315  O466    1.623   .     S
Si315  O467    1.625   .     S
Si316  O432    1.627   .     S
Si316  O433    1.623   .     S
Si316  O442    1.627   .     S
Si316  O449    1.622   1_655 S
Si317  O433    1.621   .     S
Si317  O434    1.622   .     S
Si317  O446    1.623   .     S
Si317  O447    1.625   .     S
Si318  O435    1.621   .     S
Si318  O445    1.630   .     S
Si318  O560    1.631   .     S
Si318  O569    1.623   .     S
Si319  O435    1.618   .     S
Si319  O436    1.621   .     S
Si319  O440    1.626   .     S
Si319  O441    1.623   .     S
Si320  O436    1.625   .     S
Si320  O437    1.631   .     S
Si320  O468    1.621   .     S
Si320  O571    1.624   .     S
Si321  O437    1.631   .     S
Si321  O438    1.622   .     S
Si321  O465    1.621   .     S
Si321  O572    1.624   .     S
Si322  O438    1.625   .     S
Si322  O439    1.628   .     S
Si322  O442    1.624   .     S
Si322  O450    1.626   1_655 S
Si323  O439    1.627   .     S
Si323  O440    1.630   .     S
Si323  O448    1.627   .     S
Si323  O570    1.623   .     S
Si324  O451    1.622   .     S
Si324  O465    1.625   .     S
Si324  O466    1.626   .     S
Si324  O537    1.622   .     S
Si325  O451    1.621   .     S
Si325  O452    1.624   .     S
Si325  O456    1.620   .     S
Si325  O463    1.624   .     S
Si326  O447    1.625   .     S
Si326  O448    1.626   .     S
Si326  O452    1.622   1_556 S
Si326  O453    1.625   .     S
Si327  O444    1.626   .     S
Si327  O445    1.627   .     S
Si327  O453    1.621   .     S
Si327  O454    1.618   1_556 S
Si328  O454    1.627   .     S
Si328  O455    1.623   .     S
Si328  O464    1.628   .     S
Si328  O471    1.624   .     S
Si329  O455    1.623   .     S
Si329  O456    1.622   .     S
Si329  O468    1.623   .     S
Si329  O469    1.626   .     S
Si330  O457    1.623   .     S
Si330  O467    1.629   .     S
Si330  O538    1.631   .     S
Si330  O573    1.622   .     S
Si331  O457    1.618   .     S
Si331  O458    1.622   .     S
Si331  O462    1.628   .     S
Si331  O463    1.622   .     S
Si332  O446    1.619   .     S
Si332  O458    1.623   1_556 S
Si332  O459    1.633   .     S
Si332  O575    1.625   .     S
Si333  O443    1.620   .     S
Si333  O459    1.629   .     S
Si333  O460    1.620   1_556 S
Si333  O576    1.630   .     S
Si334  O460    1.626   .     S
Si334  O461    1.627   .     S
Si334  O464    1.622   .     S
Si334  O472    1.625   .     S
Si335  O461    1.627   .     S
Si335  O462    1.628   .     S
Si335  O470    1.625   .     S
Si335  O574    1.624   .     S
Si336  O427    1.628   .     S
Si336  O473    1.619   .     S
Si336  O487    1.625   .     S
Si336  O488    1.620   .     S
Si337  O473    1.626   .     S
Si337  O474    1.626   .     S
Si337  O478    1.620   .     S
Si337  O485    1.623   .     S
Si338  O474    1.626   .     S
Si338  O475    1.620   .     S
Si338  O513    1.624   .     S
Si338  O514    1.629   .     S
Si339  O475    1.624   .     S
Si339  O476    1.618   .     S
Si339  O510    1.623   .     S
Si339  O511    1.624   .     S
Si340  O476    1.628   .     S
Si340  O477    1.628   .     S
Si340  O486    1.628   .     S
Si340  O493    1.619   1_655 S
Si341  O477    1.622   .     S
Si341  O478    1.627   .     S
Si341  O490    1.625   .     S
Si341  O491    1.626   .     S
Si342  O428    1.632   .     S
Si342  O479    1.623   .     S
Si342  O489    1.629   .     S
Si342  O281    1.621   1_565 S
Si343  O479    1.621   .     S
Si343  O480    1.619   .     S
Si343  O484    1.626   .     S
Si343  O485    1.625   .     S
Si344  O480    1.624   .     S
Si344  O481    1.630   .     S
Si344  O512    1.623   .     S
Si344  O283    1.624   1_565 S
Si345  O481    1.632   .     S
Si345  O482    1.619   .     S
Si345  O509    1.620   .     S
Si345  O284    1.625   1_565 S
Si346  O482    1.622   .     S
Si346  O483    1.628   .     S
Si346  O486    1.624   .     S
Si346  O494    1.624   1_655 S
Si347  O483    1.625   .     S
Si347  O484    1.630   .     S
Si347  O492    1.626   .     S
Si347  O282    1.622   1_565 S
Si348  O405    1.619   .     S
Si348  O495    1.624   .     S
Si348  O509    1.625   .     S
Si348  O510    1.627   .     S
Si349  O495    1.619   .     S
Si349  O496    1.624   .     S
Si349  O500    1.623   .     S
Si349  O507    1.624   .     S
Si350  O491    1.625   .     S
Si350  O492    1.624   .     S
Si350  O496    1.622   1_556 S
Si350  O497    1.625   .     S
Si351  O488    1.625   .     S
Si351  O489    1.623   .     S
Si351  O497    1.617   .     S
Si351  O498    1.619   1_556 S
Si352  O498    1.627   .     S
Si352  O499    1.623   .     S
Si352  O508    1.630   .     S
Si352  O515    1.620   .     S
Si353  O499    1.624   .     S
Si353  O500    1.623   .     S
Si353  O512    1.623   .     S
Si353  O513    1.627   .     S
Si354  O406    1.629   .     S
Si354  O501    1.623   .     S
Si354  O511    1.628   .     S
Si354  O573    1.622   .     S
Si355  O501    1.616   .     S
Si355  O502    1.621   .     S
Si355  O506    1.630   .     S
Si355  O507    1.620   .     S
Si356  O490    1.620   .     S
Si356  O502    1.623   1_556 S
Si356  O503    1.633   .     S
Si356  O575    1.623   .     S
Si357  O487    1.625   .     S
Si357  O503    1.628   .     S
Si357  O504    1.621   1_556 S
Si357  O576    1.626   .     S
Si358  O504    1.625   .     S
Si358  O505    1.629   .     S
Si358  O508    1.624   .     S
Si358  O516    1.626   .     S
Si359  O505    1.632   .     S
Si359  O506    1.627   .     S
Si359  O514    1.628   .     S
Si359  O574    1.621   .     S
Si360  O471    1.624   .     S
Si360  O517    1.624   .     S
Si360  O531    1.628   .     S
Si360  O532    1.626   .     S
Si361  O517    1.624   .     S
Si361  O518    1.622   .     S
Si361  O522    1.622   .     S
Si361  O529    1.626   .     S
Si362  O518    1.623   .     S
Si362  O519    1.623   .     S
Si362  O557    1.625   .     S
Si362  O558    1.626   .     S
Si363  O519    1.621   .     S
Si363  O520    1.618   .     S
Si363  O554    1.622   .     S
Si363  O555    1.622   .     S
Si364  O520    1.624   .     S
Si364  O521    1.622   .     S
Si364  O530    1.626   .     S
Si364  O537    1.625   1_455 S
Si365  O521    1.622   .     S
Si365  O522    1.624   .     S
Si365  O534    1.621   .     S
Si365  O535    1.626   .     S
Si366  O472    1.630   .     S
Si366  O523    1.624   .     S
Si366  O533    1.628   .     S
Si366  O561    1.622   .     S
Si367  O523    1.624   .     S
Si367  O524    1.618   .     S
Si367  O528    1.628   .     S
Si367  O529    1.624   .     S
Si368  O524    1.627   .     S
Si368  O525    1.632   .     S
Si368  O556    1.625   .     S
Si368  O563    1.616   .     S
Si369  O525    1.632   .     S
Si369  O526    1.621   .     S
Si369  O553    1.623   .     S
Si369  O564    1.623   .     S
Si370  O526    1.622   .     S
Si370  O527    1.627   .     S
Si370  O530    1.623   .     S
Si370  O538    1.629   1_455 S
Si371  O527    1.628   .     S
Si371  O528    1.630   .     S
Si371  O536    1.627   .     S
Si371  O562    1.621   .     S
Si372  O449    1.623   .     S
Si372  O539    1.622   .     S
Si372  O553    1.623   .     S
Si372  O554    1.625   .     S
Si373  O539    1.621   .     S
Si373  O540    1.625   .     S
Si373  O544    1.622   .     S
Si373  O551    1.625   .     S
Si374  O535    1.624   .     S
Si374  O536    1.626   .     S
Si374  O540    1.624   1_554 S
Si374  O541    1.626   .     S
Si375  O532    1.623   .     S
Si375  O533    1.626   .     S
Si375  O541    1.621   .     S
Si375  O542    1.622   1_554 S
Si376  O542    1.628   .     S
Si376  O543    1.621   .     S
Si376  O552    1.627   .     S
Si376  O559    1.626   .     S
Si377  O543    1.624   .     S
Si377  O544    1.624   .     S
Si377  O556    1.623   .     S
Si377  O557    1.625   .     S
Si378  O450    1.632   .     S
Si378  O545    1.622   .     S
Si378  O555    1.626   .     S
Si378  O565    1.620   .     S
Si379  O545    1.619   .     S
Si379  O546    1.619   .     S
Si379  O550    1.628   .     S
Si379  O551    1.625   .     S
Si380  O534    1.619   .     S
Si380  O546    1.622   1_554 S
Si380  O547    1.632   .     S
Si380  O567    1.624   .     S
Si381  O531    1.624   .     S
Si381  O547    1.629   .     S
Si381  O548    1.622   1_554 S
Si381  O568    1.624   .     S
Si382  O548    1.624   .     S
Si382  O549    1.625   .     S
Si382  O552    1.624   .     S
Si382  O560    1.630   .     S
Si383  O549    1.630   .     S
Si383  O550    1.630   .     S
Si383  O558    1.627   .     S
Si383  O566    1.616   .     S
Al384  O411    1.874   .     S
Al384  O412    1.714   .     S
Al384  O424    1.721   .     S
Al384  O425    1.716   .     S
O405   Si293   1.627   1_655 S
O406   Si299   1.630   1_655 S
O408   Si303   1.614   1_556 S
O410   Si304   1.627   1_556 S
O411   H577    1.006   .     S
O414   Si308   1.622   1_556 S
O416   Si309   1.623   1_556 S
O449   Si316   1.622   1_455 S
O450   Si322   1.626   1_455 S
O452   Si326   1.622   1_554 S
O454   Si327   1.618   1_554 S
O458   Si332   1.623   1_554 S
O460   Si333   1.620   1_554 S
O493   Si340   1.619   1_455 S
O494   Si346   1.624   1_455 S
O496   Si350   1.622   1_554 S
O498   Si351   1.619   1_554 S
O502   Si356   1.623   1_554 S
O504   Si357   1.621   1_554 S
O537   Si364   1.625   1_655 S
O538   Si370   1.629   1_655 S
O540   Si374   1.624   1_556 S
O542   Si375   1.622   1_556 S
O546   Si380   1.622   1_556 S
O548   Si381   1.622   1_556 S
H578   C584    1.089   .     S
H579   C585    1.087   .     S
H580   C582    1.088   .     S
H581   C583    1.087   .     S
C582   C583    1.371   .     D
C582   C584    1.429   .     S
C583   S586    1.728   .     S
C584   C585    1.372   .     D
C585   S586    1.725   .     S
