data_image0
_cell_length_a       45.04
_cell_length_b       45.04
_cell_length_c       25.099
_cell_angle_alpha    90
_cell_angle_beta     90
_cell_angle_gamma    60

_symmetry_space_group_name_H-M    "P 1"
_symmetry_int_tables_number       1

loop_
  _symmetry_equiv_pos_as_xyz
  'x, y, z'

loop_
  _atom_site_label
  _atom_site_occupancy
  _atom_site_fract_x
  _atom_site_fract_y
  _atom_site_fract_z
  _atom_site_thermal_displace_type
  _atom_site_B_iso_or_equiv
  _atom_site_type_symbol
  C1       1.0000 0.03114  0.96772  0.43161  Biso   1.000  C
  C2       1.0000 0.03228  0.99886  0.43161  Biso   1.000  C
  C3       1.0000 0.06458  0.99769  0.43173  Biso   1.000  C
  C4       1.0000 0.02765  0.87433  0.43221  Biso   1.000  C
  C5       1.0000 0.02882  0.90545  0.43188  Biso   1.000  C
  C6       1.0000 0.06114  0.90426  0.43194  Biso   1.000  C
  C7       1.0000 0.06227  0.93542  0.43173  Biso   1.000  C
  C8       1.0000 0.09455  0.93427  0.43188  Biso   1.000  C
  C9       1.0000 0.09574  0.96540  0.43194  Biso   1.000  C
  C10      1.0000 0.12804  0.96425  0.43221  Biso   1.000  C
  C11      1.0000 0.12918  0.99539  0.43235  Biso   1.000  C
  C12      1.0000 0.16144  0.99431  0.43272  Biso   1.000  C
  C13      1.0000 0.02443  0.78077  0.43337  Biso   1.000  C
  C14      1.0000 0.02548  0.81198  0.43300  Biso   1.000  C
  C15      1.0000 0.05773  0.81088  0.43286  Biso   1.000  C
  C16      1.0000 0.05882  0.84204  0.43249  Biso   1.000  C
  C17      1.0000 0.09116  0.84083  0.43246  Biso   1.000  C
  C18      1.0000 0.09228  0.87196  0.43221  Biso   1.000  C
  C19      1.0000 0.12457  0.87082  0.43235  Biso   1.000  C
  C20      1.0000 0.12567  0.90197  0.43221  Biso   1.000  C
  C21      1.0000 0.15796  0.90086  0.43249  Biso   1.000  C
  C22      1.0000 0.15917  0.93199  0.43246  Biso   1.000  C
  C23      1.0000 0.19145  0.93089  0.43278  Biso   1.000  C
  C24      1.0000 0.19259  0.96206  0.43284  Biso   1.000  C
  C25      1.0000 0.22483  0.96101  0.43306  Biso   1.000  C
  C26      1.0000 0.22597  0.99218  0.43334  Biso   1.000  C
  C27      1.0000 0.25822  0.99114  0.43374  Biso   1.000  C
  C28      1.0000 0.02141  0.68713  0.43450  Biso   1.000  C
  C29      1.0000 0.02233  0.71838  0.43418  Biso   1.000  C
  C30      1.0000 0.05459  0.71728  0.43415  Biso   1.000  C
  C31      1.0000 0.05561  0.74848  0.43370  Biso   1.000  C
  C32      1.0000 0.08789  0.74734  0.43353  Biso   1.000  C
  C33      1.0000 0.08890  0.77856  0.43313  Biso   1.000  C
  C34      1.0000 0.12120  0.77741  0.43299  Biso   1.000  C
  C35      1.0000 0.12234  0.80855  0.43278  Biso   1.000  C
  C36      1.0000 0.15465  0.80741  0.43284  Biso   1.000  C
  C37      1.0000 0.15575  0.83856  0.43272  Biso   1.000  C
  C38      1.0000 0.18802  0.83746  0.43300  Biso   1.000  C
  C39      1.0000 0.18912  0.86861  0.43286  Biso   1.000  C
  C40      1.0000 0.22144  0.86747  0.43313  Biso   1.000  C
  C41      1.0000 0.22259  0.89860  0.43299  Biso   1.000  C
  C42      1.0000 0.25485  0.89755  0.43318  Biso   1.000  C
  C43      1.0000 0.25596  0.92873  0.43320  Biso   1.000  C
  C44      1.0000 0.28819  0.92774  0.43359  Biso   1.000  C
  C45      1.0000 0.28938  0.95890  0.43380  Biso   1.000  C
  C46      1.0000 0.32158  0.95797  0.43420  Biso   1.000  C
  C47      1.0000 0.32262  0.98919  0.43449  Biso   1.000  C
  C48      1.0000 0.35477  0.98832  0.43480  Biso   1.000  C
  C49      1.0000 0.01867  0.59336  0.43515  Biso   1.000  C
  C50      1.0000 0.01957  0.62464  0.43500  Biso   1.000  C
  C51      1.0000 0.05177  0.62360  0.43504  Biso   1.000  C
  C52      1.0000 0.05264  0.65487  0.43483  Biso   1.000  C
  C53      1.0000 0.08489  0.65379  0.43479  Biso   1.000  C
  C54      1.0000 0.08584  0.68501  0.43446  Biso   1.000  C
  C55      1.0000 0.11814  0.68385  0.43421  Biso   1.000  C
  C56      1.0000 0.11910  0.71507  0.43375  Biso   1.000  C
  C57      1.0000 0.15137  0.71397  0.43356  Biso   1.000  C
  C58      1.0000 0.15240  0.74515  0.43318  Biso   1.000  C
  C59      1.0000 0.18469  0.74404  0.43320  Biso   1.000  C
  C60      1.0000 0.18584  0.77517  0.43306  Biso   1.000  C
  C61      1.0000 0.21815  0.77403  0.43334  Biso   1.000  C
  C62      1.0000 0.21923  0.80521  0.43337  Biso   1.000  C
  C63      1.0000 0.25152  0.80409  0.43370  Biso   1.000  C
  C64      1.0000 0.25266  0.83524  0.43353  Biso   1.000  C
  C65      1.0000 0.28493  0.83418  0.43375  Biso   1.000  C
  C66      1.0000 0.28603  0.86534  0.43356  Biso   1.000  C
  C67      1.0000 0.31825  0.86436  0.43386  Biso   1.000  C
  C68      1.0000 0.31935  0.89554  0.43391  Biso   1.000  C
  C69      1.0000 0.35157  0.89458  0.43420  Biso   1.000  C
  C70      1.0000 0.35273  0.92576  0.43430  Biso   1.000  C
  C71      1.0000 0.38491  0.92484  0.43462  Biso   1.000  C
  C72      1.0000 0.38593  0.95610  0.43480  Biso   1.000  C
  C73      1.0000 0.41809  0.95524  0.43495  Biso   1.000  C
  C74      1.0000 0.41916  0.98646  0.43508  Biso   1.000  C
  C75      1.0000 0.45132  0.98561  0.43502  Biso   1.000  C
  C76      1.0000 0.01609  0.49949  0.43503  Biso   1.000  C
  C77      1.0000 0.01688  0.53081  0.43506  Biso   1.000  C
  C78      1.0000 0.04908  0.52977  0.43529  Biso   1.000  C
  C79      1.0000 0.04991  0.56108  0.43529  Biso   1.000  C
  C80      1.0000 0.08214  0.55999  0.43547  Biso   1.000  C
  C81      1.0000 0.08300  0.59129  0.43526  Biso   1.000  C
  C82      1.0000 0.11520  0.59025  0.43518  Biso   1.000  C
  C83      1.0000 0.11612  0.62150  0.43494  Biso   1.000  C
  C84      1.0000 0.14839  0.62039  0.43476  Biso   1.000  C
  C85      1.0000 0.14940  0.65159  0.43440  Biso   1.000  C
  C86      1.0000 0.18164  0.65054  0.43426  Biso   1.000  C
  C87      1.0000 0.18261  0.68175  0.43386  Biso   1.000  C
  C88      1.0000 0.21489  0.68065  0.43391  Biso   1.000  C
  C89      1.0000 0.21592  0.71181  0.43359  Biso   1.000  C
  C90      1.0000 0.24827  0.71062  0.43380  Biso   1.000  C
  C91      1.0000 0.24936  0.74178  0.43374  Biso   1.000  C
  C92      1.0000 0.28162  0.74071  0.43418  Biso   1.000  C
  C93      1.0000 0.28272  0.77187  0.43415  Biso   1.000  C
  C94      1.0000 0.31499  0.77085  0.43446  Biso   1.000  C
  C95      1.0000 0.31615  0.80199  0.43421  Biso   1.000  C
  C96      1.0000 0.34841  0.80099  0.43440  Biso   1.000  C
  C97      1.0000 0.34946  0.83218  0.43426  Biso   1.000  C
  C98      1.0000 0.38169  0.83120  0.43457  Biso   1.000  C
  C99      1.0000 0.38277  0.86238  0.43452  Biso   1.000  C
  C100     1.0000 0.41500  0.86140  0.43472  Biso   1.000  C
  C101     1.0000 0.41607  0.89261  0.43474  Biso   1.000  C
  C102     1.0000 0.44822  0.89176  0.43479  Biso   1.000  C
  C103     1.0000 0.44923  0.92301  0.43490  Biso   1.000  C
  C104     1.0000 0.48138  0.92219  0.43498  Biso   1.000  C
  C105     1.0000 0.48247  0.95341  0.43503  Biso   1.000  C
  C106     1.0000 0.51458  0.95264  0.43508  Biso   1.000  C
  C107     1.0000 0.51558  0.98391  0.43503  Biso   1.000  C
  C108     1.0000 0.54769  0.98312  0.43506  Biso   1.000  C
  C109     1.0000 0.01354  0.40562  0.43508  Biso   1.000  C
  C110     1.0000 0.01439  0.43693  0.43502  Biso   1.000  C
  C111     1.0000 0.04659  0.43589  0.43503  Biso   1.000  C
  C112     1.0000 0.04736  0.46722  0.43508  Biso   1.000  C
  C113     1.0000 0.07955  0.46620  0.43538  Biso   1.000  C
  C114     1.0000 0.08036  0.49750  0.43555  Biso   1.000  C
  C115     1.0000 0.11259  0.49643  0.43582  Biso   1.000  C
  C116     1.0000 0.11340  0.52772  0.43571  Biso   1.000  C
  C117     1.0000 0.14560  0.52671  0.43558  Biso   1.000  C
  C118     1.0000 0.14645  0.55799  0.43522  Biso   1.000  C
  C119     1.0000 0.17867  0.55694  0.43516  Biso   1.000  C
  C120     1.0000 0.17964  0.58816  0.43493  Biso   1.000  C
  C121     1.0000 0.21191  0.58710  0.43491  Biso   1.000  C
  C122     1.0000 0.21289  0.61831  0.43457  Biso   1.000  C
  C123     1.0000 0.24514  0.61723  0.43452  Biso   1.000  C
  C124     1.0000 0.24616  0.64843  0.43420  Biso   1.000  C
  C125     1.0000 0.27849  0.64727  0.43430  Biso   1.000  C
  C126     1.0000 0.27955  0.67842  0.43420  Biso   1.000  C
  C127     1.0000 0.31182  0.67738  0.43449  Biso   1.000  C
  C128     1.0000 0.31287  0.70854  0.43450  Biso   1.000  C
  C129     1.0000 0.34513  0.70752  0.43483  Biso   1.000  C
  C130     1.0000 0.34621  0.73868  0.43479  Biso   1.000  C
  C131     1.0000 0.37850  0.73762  0.43494  Biso   1.000  C
  C132     1.0000 0.37961  0.76879  0.43476  Biso   1.000  C
  C133     1.0000 0.41184  0.76781  0.43493  Biso   1.000  C
  C134     1.0000 0.41290  0.79901  0.43491  Biso   1.000  C
  C135     1.0000 0.44514  0.79804  0.43509  Biso   1.000  C
  C136     1.0000 0.44622  0.82923  0.43492  Biso   1.000  C
  C137     1.0000 0.47838  0.82837  0.43490  Biso   1.000  C
  C138     1.0000 0.47941  0.85960  0.43480  Biso   1.000  C
  C139     1.0000 0.51154  0.85878  0.43494  Biso   1.000  C
  C140     1.0000 0.51255  0.89003  0.43504  Biso   1.000  C
  C141     1.0000 0.54468  0.88921  0.43532  Biso   1.000  C
  C142     1.0000 0.54574  0.92045  0.43538  Biso   1.000  C
  C143     1.0000 0.57786  0.91964  0.43555  Biso   1.000  C
  C144     1.0000 0.57885  0.95092  0.43529  Biso   1.000  C
  C145     1.0000 0.61098  0.95009  0.43529  Biso   1.000  C
  C146     1.0000 0.61203  0.98133  0.43515  Biso   1.000  C
  C147     1.0000 0.64420  0.98043  0.43500  Biso   1.000  C
  C148     1.0000 0.01081  0.31182  0.43449  Biso   1.000  C
  C149     1.0000 0.01168  0.34309  0.43480  Biso   1.000  C
  C150     1.0000 0.04390  0.34203  0.43480  Biso   1.000  C
  C151     1.0000 0.04476  0.37332  0.43495  Biso   1.000  C
  C152     1.0000 0.07699  0.37224  0.43490  Biso   1.000  C
  C153     1.0000 0.07781  0.40357  0.43498  Biso   1.000  C
  C154     1.0000 0.10997  0.40258  0.43504  Biso   1.000  C
  C155     1.0000 0.11079  0.43390  0.43532  Biso   1.000  C
  C156     1.0000 0.14299  0.43289  0.43566  Biso   1.000  C
  C157     1.0000 0.14387  0.46417  0.43596  Biso   1.000  C
  C158     1.0000 0.17606  0.46318  0.43607  Biso   1.000  C
  C159     1.0000 0.17688  0.49447  0.43582  Biso   1.000  C
  C160     1.0000 0.20909  0.49347  0.43585  Biso   1.000  C
  C161     1.0000 0.20995  0.52473  0.43546  Biso   1.000  C
  C162     1.0000 0.24223  0.52364  0.43537  Biso   1.000  C
  C163     1.0000 0.24317  0.55486  0.43509  Biso   1.000  C
  C164     1.0000 0.27545  0.55378  0.43492  Biso   1.000  C
  C165     1.0000 0.27639  0.58500  0.43472  Biso   1.000  C
  C166     1.0000 0.30867  0.58393  0.43474  Biso   1.000  C
  C167     1.0000 0.30975  0.61509  0.43462  Biso   1.000  C
  C168     1.0000 0.34203  0.61407  0.43480  Biso   1.000  C
  C169     1.0000 0.34309  0.64523  0.43480  Biso   1.000  C
  C170     1.0000 0.37536  0.64420  0.43500  Biso   1.000  C
  C171     1.0000 0.37640  0.67537  0.43504  Biso   1.000  C
  C172     1.0000 0.40871  0.67429  0.43526  Biso   1.000  C
  C173     1.0000 0.40975  0.70545  0.43518  Biso   1.000  C
  C174     1.0000 0.44201  0.70444  0.43522  Biso   1.000  C
  C175     1.0000 0.44306  0.73562  0.43516  Biso   1.000  C
  C176     1.0000 0.47527  0.73468  0.43546  Biso   1.000  C
  C177     1.0000 0.47636  0.76587  0.43537  Biso   1.000  C
  C178     1.0000 0.50854  0.76501  0.43551  Biso   1.000  C
  C179     1.0000 0.50959  0.79623  0.43517  Biso   1.000  C
  C180     1.0000 0.54175  0.79537  0.43539  Biso   1.000  C
  C181     1.0000 0.54274  0.82662  0.43521  Biso   1.000  C
  C182     1.0000 0.57490  0.82576  0.43562  Biso   1.000  C
  C183     1.0000 0.57588  0.85701  0.43566  Biso   1.000  C
  C184     1.0000 0.60803  0.85613  0.43596  Biso   1.000  C
  C185     1.0000 0.60902  0.88741  0.43582  Biso   1.000  C
  C186     1.0000 0.64112  0.88660  0.43571  Biso   1.000  C
  C187     1.0000 0.64213  0.91786  0.43547  Biso   1.000  C
  C188     1.0000 0.67429  0.91700  0.43526  Biso   1.000  C
  C189     1.0000 0.67537  0.94823  0.43504  Biso   1.000  C
  C190     1.0000 0.70752  0.94736  0.43483  Biso   1.000  C
  C191     1.0000 0.70854  0.97859  0.43450  Biso   1.000  C
  C192     1.0000 0.74071  0.97767  0.43418  Biso   1.000  C
  C193     1.0000 0.00782  0.21815  0.43334  Biso   1.000  C
  C194     1.0000 0.00886  0.24936  0.43374  Biso   1.000  C
  C195     1.0000 0.04110  0.24827  0.43380  Biso   1.000  C
  C196     1.0000 0.04203  0.27955  0.43420  Biso   1.000  C
  C197     1.0000 0.07424  0.27849  0.43430  Biso   1.000  C
  C198     1.0000 0.07516  0.30975  0.43462  Biso   1.000  C
  C199     1.0000 0.10739  0.30867  0.43474  Biso   1.000  C
  C200     1.0000 0.10824  0.33997  0.43479  Biso   1.000  C
  C201     1.0000 0.14040  0.33900  0.43480  Biso   1.000  C
  C202     1.0000 0.14122  0.37032  0.43494  Biso   1.000  C
  C203     1.0000 0.17338  0.36936  0.43521  Biso   1.000  C
  C204     1.0000 0.17424  0.40065  0.43562  Biso   1.000  C
  C205     1.0000 0.20644  0.39967  0.43602  Biso   1.000  C
  C206     1.0000 0.20733  0.43095  0.43613  Biso   1.000  C
  C207     1.0000 0.23953  0.42996  0.43617  Biso   1.000  C
  C208     1.0000 0.24039  0.46125  0.43604  Biso   1.000  C
  C209     1.0000 0.27262  0.46023  0.43592  Biso   1.000  C
  C210     1.0000 0.27355  0.49146  0.43551  Biso   1.000  C
  C211     1.0000 0.30582  0.49041  0.43517  Biso   1.000  C
  C212     1.0000 0.30675  0.52162  0.43490  Biso   1.000  C
  C213     1.0000 0.33900  0.52059  0.43480  Biso   1.000  C
  C214     1.0000 0.33997  0.55178  0.43479  Biso   1.000  C
  C215     1.0000 0.37224  0.55077  0.43490  Biso   1.000  C
  C216     1.0000 0.37332  0.58191  0.43495  Biso   1.000  C
  C217     1.0000 0.40562  0.58084  0.43508  Biso   1.000  C
  C218     1.0000 0.40664  0.61203  0.43515  Biso   1.000  C
  C219     1.0000 0.43892  0.61098  0.43529  Biso   1.000  C
  C220     1.0000 0.44001  0.64213  0.43547  Biso   1.000  C
  C221     1.0000 0.47228  0.64112  0.43571  Biso   1.000  C
  C222     1.0000 0.47329  0.67231  0.43558  Biso   1.000  C
  C223     1.0000 0.50553  0.67136  0.43582  Biso   1.000  C
  C224     1.0000 0.50653  0.70256  0.43585  Biso   1.000  C
  C225     1.0000 0.53875  0.70164  0.43604  Biso   1.000  C
  C226     1.0000 0.53977  0.73285  0.43592  Biso   1.000  C
  C227     1.0000 0.57199  0.73191  0.43593  Biso   1.000  C
  C228     1.0000 0.57295  0.76317  0.43583  Biso   1.000  C
  C229     1.0000 0.60510  0.76231  0.43598  Biso   1.000  C
  C230     1.0000 0.60611  0.79356  0.43602  Biso   1.000  C
  C231     1.0000 0.63828  0.79267  0.43613  Biso   1.000  C
  C232     1.0000 0.63923  0.82394  0.43607  Biso   1.000  C
  C233     1.0000 0.67136  0.82312  0.43582  Biso   1.000  C
  C234     1.0000 0.67231  0.85440  0.43558  Biso   1.000  C
  C235     1.0000 0.70444  0.85355  0.43522  Biso   1.000  C
  C236     1.0000 0.70545  0.88480  0.43518  Biso   1.000  C
  C237     1.0000 0.73762  0.88388  0.43494  Biso   1.000  C
  C238     1.0000 0.73868  0.91511  0.43479  Biso   1.000  C
  C239     1.0000 0.77085  0.91416  0.43446  Biso   1.000  C
  C240     1.0000 0.77187  0.94541  0.43415  Biso   1.000  C
  C241     1.0000 0.80409  0.94439  0.43370  Biso   1.000  C
  C242     1.0000 0.80521  0.97557  0.43337  Biso   1.000  C
  C243     1.0000 0.83746  0.97452  0.43300  Biso   1.000  C
  C244     1.0000 0.00461  0.12457  0.43235  Biso   1.000  C
  C245     1.0000 0.00569  0.15575  0.43272  Biso   1.000  C
  C246     1.0000 0.03794  0.15465  0.43284  Biso   1.000  C
  C247     1.0000 0.03899  0.18584  0.43306  Biso   1.000  C
  C248     1.0000 0.07127  0.18469  0.43320  Biso   1.000  C
  C249     1.0000 0.07226  0.21592  0.43359  Biso   1.000  C
  C250     1.0000 0.10446  0.21489  0.43391  Biso   1.000  C
  C251     1.0000 0.10542  0.24616  0.43420  Biso   1.000  C
  C252     1.0000 0.13762  0.24514  0.43452  Biso   1.000  C
  C253     1.0000 0.13860  0.27639  0.43472  Biso   1.000  C
  C254     1.0000 0.17077  0.27545  0.43492  Biso   1.000  C
  C255     1.0000 0.17163  0.30675  0.43490  Biso   1.000  C
  C256     1.0000 0.20377  0.30582  0.43517  Biso   1.000  C
  C257     1.0000 0.20463  0.33711  0.43539  Biso   1.000  C
  C258     1.0000 0.23683  0.33612  0.43583  Biso   1.000  C
  C259     1.0000 0.23769  0.36741  0.43598  Biso   1.000  C
  C260     1.0000 0.26989  0.36644  0.43606  Biso   1.000  C
  C261     1.0000 0.27078  0.39773  0.43609  Biso   1.000  C
  C262     1.0000 0.30297  0.39677  0.43604  Biso   1.000  C
  C263     1.0000 0.30390  0.42801  0.43593  Biso   1.000  C
  C264     1.0000 0.33612  0.42705  0.43583  Biso   1.000  C
  C265     1.0000 0.33711  0.45825  0.43539  Biso   1.000  C
  C266     1.0000 0.36936  0.45726  0.43521  Biso   1.000  C
  C267     1.0000 0.37032  0.48846  0.43494  Biso   1.000  C
  C268     1.0000 0.40258  0.48745  0.43504  Biso   1.000  C
  C269     1.0000 0.40357  0.51862  0.43498  Biso   1.000  C
  C270     1.0000 0.43589  0.51753  0.43503  Biso   1.000  C
  C271     1.0000 0.43693  0.54868  0.43502  Biso   1.000  C
  C272     1.0000 0.46919  0.54769  0.43506  Biso   1.000  C
  C273     1.0000 0.47023  0.57885  0.43529  Biso   1.000  C
  C274     1.0000 0.50250  0.57786  0.43555  Biso   1.000  C
  C275     1.0000 0.50357  0.60902  0.43582  Biso   1.000  C
  C276     1.0000 0.53583  0.60803  0.43596  Biso   1.000  C
  C277     1.0000 0.53682  0.63923  0.43607  Biso   1.000  C
  C278     1.0000 0.56905  0.63828  0.43613  Biso   1.000  C
  C279     1.0000 0.57004  0.66949  0.43617  Biso   1.000  C
  C280     1.0000 0.60227  0.66850  0.43609  Biso   1.000  C
  C281     1.0000 0.60323  0.69974  0.43604  Biso   1.000  C
  C282     1.0000 0.63541  0.69884  0.43596  Biso   1.000  C
  C283     1.0000 0.63633  0.73011  0.43606  Biso   1.000  C
  C284     1.0000 0.66850  0.72922  0.43609  Biso   1.000  C
  C285     1.0000 0.66949  0.76047  0.43617  Biso   1.000  C
  C286     1.0000 0.70164  0.75961  0.43604  Biso   1.000  C
  C287     1.0000 0.70256  0.79091  0.43585  Biso   1.000  C
  C288     1.0000 0.73468  0.79005  0.43546  Biso   1.000  C
  C289     1.0000 0.73562  0.82133  0.43516  Biso   1.000  C
  C290     1.0000 0.76781  0.82036  0.43493  Biso   1.000  C
  C291     1.0000 0.76879  0.85161  0.43476  Biso   1.000  C
  C292     1.0000 0.80099  0.85060  0.43440  Biso   1.000  C
  C293     1.0000 0.80199  0.88186  0.43421  Biso   1.000  C
  C294     1.0000 0.83418  0.88090  0.43375  Biso   1.000  C
  C295     1.0000 0.83524  0.91211  0.43353  Biso   1.000  C
  C296     1.0000 0.86747  0.91110  0.43313  Biso   1.000  C
  C297     1.0000 0.86861  0.94227  0.43286  Biso   1.000  C
  C298     1.0000 0.90086  0.94118  0.43249  Biso   1.000  C
  C299     1.0000 0.90197  0.97235  0.43221  Biso   1.000  C
  C300     1.0000 0.93427  0.97118  0.43188  Biso   1.000  C
  C301     1.0000 0.00114  0.03114  0.43161  Biso   1.000  C
  C302     1.0000 0.00231  0.06227  0.43173  Biso   1.000  C
  C303     1.0000 0.03460  0.06114  0.43194  Biso   1.000  C
  C304     1.0000 0.03575  0.09228  0.43221  Biso   1.000  C
  C305     1.0000 0.06801  0.09116  0.43246  Biso   1.000  C
  C306     1.0000 0.06911  0.12234  0.43278  Biso   1.000  C
  C307     1.0000 0.10140  0.12120  0.43299  Biso   1.000  C
  C308     1.0000 0.10245  0.15240  0.43318  Biso   1.000  C
  C309     1.0000 0.13466  0.15137  0.43356  Biso   1.000  C
  C310     1.0000 0.13564  0.18261  0.43386  Biso   1.000  C
  C311     1.0000 0.16782  0.18164  0.43426  Biso   1.000  C
  C312     1.0000 0.16880  0.21289  0.43457  Biso   1.000  C
  C313     1.0000 0.20099  0.21191  0.43491  Biso   1.000  C
  C314     1.0000 0.20196  0.24317  0.43509  Biso   1.000  C
  C315     1.0000 0.23413  0.24223  0.43537  Biso   1.000  C
  C316     1.0000 0.23499  0.27355  0.43551  Biso   1.000  C
  C317     1.0000 0.26715  0.27262  0.43592  Biso   1.000  C
  C318     1.0000 0.26809  0.30390  0.43593  Biso   1.000  C
  C319     1.0000 0.30026  0.30297  0.43604  Biso   1.000  C
  C320     1.0000 0.30116  0.33424  0.43596  Biso   1.000  C
  C321     1.0000 0.33333  0.33333  0.43598  Biso   1.000  C
  C322     1.0000 0.33424  0.36459  0.43596  Biso   1.000  C
  C323     1.0000 0.36644  0.36367  0.43606  Biso   1.000  C
  C324     1.0000 0.36741  0.39490  0.43598  Biso   1.000  C
  C325     1.0000 0.39967  0.39389  0.43602  Biso   1.000  C
  C326     1.0000 0.40065  0.42510  0.43562  Biso   1.000  C
  C327     1.0000 0.43289  0.42412  0.43566  Biso   1.000  C
  C328     1.0000 0.43390  0.45532  0.43532  Biso   1.000  C
  C329     1.0000 0.46620  0.45426  0.43538  Biso   1.000  C
  C330     1.0000 0.46722  0.48542  0.43508  Biso   1.000  C
  C331     1.0000 0.49949  0.48442  0.43503  Biso   1.000  C
  C332     1.0000 0.50051  0.51558  0.43503  Biso   1.000  C
  C333     1.0000 0.53278  0.51458  0.43508  Biso   1.000  C
  C334     1.0000 0.53380  0.54574  0.43538  Biso   1.000  C
  C335     1.0000 0.56610  0.54468  0.43532  Biso   1.000  C
  C336     1.0000 0.56711  0.57588  0.43566  Biso   1.000  C
  C337     1.0000 0.59935  0.57490  0.43562  Biso   1.000  C
  C338     1.0000 0.60033  0.60611  0.43602  Biso   1.000  C
  C339     1.0000 0.63259  0.60510  0.43598  Biso   1.000  C
  C340     1.0000 0.63356  0.63633  0.43606  Biso   1.000  C
  C341     1.0000 0.66576  0.63541  0.43596  Biso   1.000  C
  C342     1.0000 0.66667  0.66667  0.43598  Biso   1.000  C
  C343     1.0000 0.69884  0.66576  0.43596  Biso   1.000  C
  C344     1.0000 0.69974  0.69703  0.43604  Biso   1.000  C
  C345     1.0000 0.73191  0.69610  0.43593  Biso   1.000  C
  C346     1.0000 0.73285  0.72738  0.43592  Biso   1.000  C
  C347     1.0000 0.76501  0.72645  0.43551  Biso   1.000  C
  C348     1.0000 0.76587  0.75777  0.43537  Biso   1.000  C
  C349     1.0000 0.79804  0.75683  0.43509  Biso   1.000  C
  C350     1.0000 0.79901  0.78809  0.43491  Biso   1.000  C
  C351     1.0000 0.83120  0.78711  0.43457  Biso   1.000  C
  C352     1.0000 0.83218  0.81836  0.43426  Biso   1.000  C
  C353     1.0000 0.86436  0.81739  0.43386  Biso   1.000  C
  C354     1.0000 0.86534  0.84863  0.43356  Biso   1.000  C
  C355     1.0000 0.89755  0.84760  0.43318  Biso   1.000  C
  C356     1.0000 0.89860  0.87880  0.43299  Biso   1.000  C
  C357     1.0000 0.93089  0.87766  0.43278  Biso   1.000  C
  C358     1.0000 0.93199  0.90884  0.43246  Biso   1.000  C
  C359     1.0000 0.96425  0.90772  0.43221  Biso   1.000  C
  C360     1.0000 0.96540  0.93886  0.43194  Biso   1.000  C
  C361     1.0000 0.99769  0.93773  0.43173  Biso   1.000  C
  C362     1.0000 0.99886  0.96886  0.43161  Biso   1.000  C
  C363     1.0000 0.06573  0.02882  0.43188  Biso   1.000  C
  C364     1.0000 0.09803  0.02765  0.43221  Biso   1.000  C
  C365     1.0000 0.09914  0.05882  0.43249  Biso   1.000  C
  C366     1.0000 0.13139  0.05773  0.43286  Biso   1.000  C
  C367     1.0000 0.13253  0.08890  0.43313  Biso   1.000  C
  C368     1.0000 0.16476  0.08789  0.43353  Biso   1.000  C
  C369     1.0000 0.16582  0.11910  0.43375  Biso   1.000  C
  C370     1.0000 0.19801  0.11814  0.43421  Biso   1.000  C
  C371     1.0000 0.19901  0.14940  0.43440  Biso   1.000  C
  C372     1.0000 0.23121  0.14839  0.43476  Biso   1.000  C
  C373     1.0000 0.23219  0.17964  0.43493  Biso   1.000  C
  C374     1.0000 0.26438  0.17867  0.43516  Biso   1.000  C
  C375     1.0000 0.26532  0.20995  0.43546  Biso   1.000  C
  C376     1.0000 0.29744  0.20909  0.43585  Biso   1.000  C
  C377     1.0000 0.29836  0.24039  0.43604  Biso   1.000  C
  C378     1.0000 0.33051  0.23953  0.43617  Biso   1.000  C
  C379     1.0000 0.33150  0.27078  0.43609  Biso   1.000  C
  C380     1.0000 0.36367  0.26989  0.43606  Biso   1.000  C
  C381     1.0000 0.36459  0.30116  0.43596  Biso   1.000  C
  C382     1.0000 0.39677  0.30026  0.43604  Biso   1.000  C
  C383     1.0000 0.39773  0.33150  0.43609  Biso   1.000  C
  C384     1.0000 0.42996  0.33051  0.43617  Biso   1.000  C
  C385     1.0000 0.43095  0.36172  0.43613  Biso   1.000  C
  C386     1.0000 0.46318  0.36077  0.43607  Biso   1.000  C
  C387     1.0000 0.46417  0.39197  0.43596  Biso   1.000  C
  C388     1.0000 0.49643  0.39098  0.43582  Biso   1.000  C
  C389     1.0000 0.49750  0.42214  0.43555  Biso   1.000  C
  C390     1.0000 0.52977  0.42115  0.43529  Biso   1.000  C
  C391     1.0000 0.53081  0.45231  0.43506  Biso   1.000  C
  C392     1.0000 0.56307  0.45132  0.43502  Biso   1.000  C
  C393     1.0000 0.56411  0.48247  0.43503  Biso   1.000  C
  C394     1.0000 0.59643  0.48138  0.43498  Biso   1.000  C
  C395     1.0000 0.59742  0.51255  0.43504  Biso   1.000  C
  C396     1.0000 0.62968  0.51154  0.43494  Biso   1.000  C
  C397     1.0000 0.63064  0.54274  0.43521  Biso   1.000  C
  C398     1.0000 0.66289  0.54175  0.43539  Biso   1.000  C
  C399     1.0000 0.66388  0.57295  0.43583  Biso   1.000  C
  C400     1.0000 0.69610  0.57199  0.43593  Biso   1.000  C
  C401     1.0000 0.69703  0.60323  0.43604  Biso   1.000  C
  C402     1.0000 0.72922  0.60227  0.43609  Biso   1.000  C
  C403     1.0000 0.73011  0.63356  0.43606  Biso   1.000  C
  C404     1.0000 0.76231  0.63259  0.43598  Biso   1.000  C
  C405     1.0000 0.76317  0.66388  0.43583  Biso   1.000  C
  C406     1.0000 0.79537  0.66289  0.43539  Biso   1.000  C
  C407     1.0000 0.79623  0.69418  0.43517  Biso   1.000  C
  C408     1.0000 0.82837  0.69325  0.43490  Biso   1.000  C
  C409     1.0000 0.82923  0.72455  0.43492  Biso   1.000  C
  C410     1.0000 0.86140  0.72361  0.43472  Biso   1.000  C
  C411     1.0000 0.86238  0.75486  0.43452  Biso   1.000  C
  C412     1.0000 0.89458  0.75384  0.43420  Biso   1.000  C
  C413     1.0000 0.89554  0.78511  0.43391  Biso   1.000  C
  C414     1.0000 0.92774  0.78408  0.43359  Biso   1.000  C
  C415     1.0000 0.92873  0.81531  0.43320  Biso   1.000  C
  C416     1.0000 0.96101  0.81416  0.43306  Biso   1.000  C
  C417     1.0000 0.96206  0.84535  0.43284  Biso   1.000  C
  C418     1.0000 0.99431  0.84425  0.43272  Biso   1.000  C
  C419     1.0000 0.99539  0.87543  0.43235  Biso   1.000  C
  C420     1.0000 0.16254  0.02548  0.43300  Biso   1.000  C
  C421     1.0000 0.19479  0.02443  0.43337  Biso   1.000  C
  C422     1.0000 0.19591  0.05561  0.43370  Biso   1.000  C
  C423     1.0000 0.22813  0.05459  0.43415  Biso   1.000  C
  C424     1.0000 0.22915  0.08584  0.43446  Biso   1.000  C
  C425     1.0000 0.26132  0.08489  0.43479  Biso   1.000  C
  C426     1.0000 0.26238  0.11612  0.43494  Biso   1.000  C
  C427     1.0000 0.29455  0.11520  0.43518  Biso   1.000  C
  C428     1.0000 0.29556  0.14645  0.43522  Biso   1.000  C
  C429     1.0000 0.32769  0.14560  0.43558  Biso   1.000  C
  C430     1.0000 0.32864  0.17688  0.43582  Biso   1.000  C
  C431     1.0000 0.36077  0.17606  0.43607  Biso   1.000  C
  C432     1.0000 0.36172  0.20733  0.43613  Biso   1.000  C
  C433     1.0000 0.39389  0.20644  0.43602  Biso   1.000  C
  C434     1.0000 0.39490  0.23769  0.43598  Biso   1.000  C
  C435     1.0000 0.42705  0.23683  0.43583  Biso   1.000  C
  C436     1.0000 0.42801  0.26809  0.43593  Biso   1.000  C
  C437     1.0000 0.46023  0.26715  0.43592  Biso   1.000  C
  C438     1.0000 0.46125  0.29836  0.43604  Biso   1.000  C
  C439     1.0000 0.49347  0.29744  0.43585  Biso   1.000  C
  C440     1.0000 0.49447  0.32864  0.43582  Biso   1.000  C
  C441     1.0000 0.52671  0.32769  0.43558  Biso   1.000  C
  C442     1.0000 0.52772  0.35888  0.43571  Biso   1.000  C
  C443     1.0000 0.55999  0.35787  0.43547  Biso   1.000  C
  C444     1.0000 0.56108  0.38902  0.43529  Biso   1.000  C
  C445     1.0000 0.59336  0.38797  0.43515  Biso   1.000  C
  C446     1.0000 0.59438  0.41916  0.43508  Biso   1.000  C
  C447     1.0000 0.62668  0.41809  0.43495  Biso   1.000  C
  C448     1.0000 0.62776  0.44923  0.43490  Biso   1.000  C
  C449     1.0000 0.66003  0.44822  0.43479  Biso   1.000  C
  C450     1.0000 0.66100  0.47941  0.43480  Biso   1.000  C
  C451     1.0000 0.69325  0.47838  0.43490  Biso   1.000  C
  C452     1.0000 0.69418  0.50959  0.43517  Biso   1.000  C
  C453     1.0000 0.72645  0.50854  0.43551  Biso   1.000  C
  C454     1.0000 0.72738  0.53977  0.43592  Biso   1.000  C
  C455     1.0000 0.75961  0.53875  0.43604  Biso   1.000  C
  C456     1.0000 0.76047  0.57004  0.43617  Biso   1.000  C
  C457     1.0000 0.79267  0.56905  0.43613  Biso   1.000  C
  C458     1.0000 0.79356  0.60033  0.43602  Biso   1.000  C
  C459     1.0000 0.82576  0.59935  0.43562  Biso   1.000  C
  C460     1.0000 0.82662  0.63064  0.43521  Biso   1.000  C
  C461     1.0000 0.85878  0.62968  0.43494  Biso   1.000  C
  C462     1.0000 0.85960  0.66100  0.43480  Biso   1.000  C
  C463     1.0000 0.89176  0.66003  0.43479  Biso   1.000  C
  C464     1.0000 0.89261  0.69133  0.43474  Biso   1.000  C
  C465     1.0000 0.92484  0.69025  0.43462  Biso   1.000  C
  C466     1.0000 0.92576  0.72151  0.43430  Biso   1.000  C
  C467     1.0000 0.95797  0.72045  0.43420  Biso   1.000  C
  C468     1.0000 0.95890  0.75173  0.43380  Biso   1.000  C
  C469     1.0000 0.99114  0.75064  0.43374  Biso   1.000  C
  C470     1.0000 0.99218  0.78185  0.43334  Biso   1.000  C
  C471     1.0000 0.25929  0.02233  0.43418  Biso   1.000  C
  C472     1.0000 0.29146  0.02141  0.43450  Biso   1.000  C
  C473     1.0000 0.29248  0.05264  0.43483  Biso   1.000  C
  C474     1.0000 0.32463  0.05177  0.43504  Biso   1.000  C
  C475     1.0000 0.32571  0.08300  0.43526  Biso   1.000  C
  C476     1.0000 0.35787  0.08214  0.43547  Biso   1.000  C
  C477     1.0000 0.35888  0.11340  0.43571  Biso   1.000  C
  C478     1.0000 0.39098  0.11259  0.43582  Biso   1.000  C
  C479     1.0000 0.39197  0.14387  0.43596  Biso   1.000  C
  C480     1.0000 0.42412  0.14299  0.43566  Biso   1.000  C
  C481     1.0000 0.42510  0.17424  0.43562  Biso   1.000  C
  C482     1.0000 0.45726  0.17338  0.43521  Biso   1.000  C
  C483     1.0000 0.45825  0.20463  0.43539  Biso   1.000  C
  C484     1.0000 0.49041  0.20377  0.43517  Biso   1.000  C
  C485     1.0000 0.49146  0.23499  0.43551  Biso   1.000  C
  C486     1.0000 0.52364  0.23413  0.43537  Biso   1.000  C
  C487     1.0000 0.52473  0.26532  0.43546  Biso   1.000  C
  C488     1.0000 0.55694  0.26438  0.43516  Biso   1.000  C
  C489     1.0000 0.55799  0.29556  0.43522  Biso   1.000  C
  C490     1.0000 0.59025  0.29455  0.43518  Biso   1.000  C
  C491     1.0000 0.59129  0.32571  0.43526  Biso   1.000  C
  C492     1.0000 0.62360  0.32463  0.43504  Biso   1.000  C
  C493     1.0000 0.62464  0.35580  0.43500  Biso   1.000  C
  C494     1.0000 0.65691  0.35477  0.43480  Biso   1.000  C
  C495     1.0000 0.65797  0.38593  0.43480  Biso   1.000  C
  C496     1.0000 0.69025  0.38491  0.43462  Biso   1.000  C
  C497     1.0000 0.69133  0.41607  0.43474  Biso   1.000  C
  C498     1.0000 0.72361  0.41500  0.43472  Biso   1.000  C
  C499     1.0000 0.72455  0.44622  0.43492  Biso   1.000  C
  C500     1.0000 0.75683  0.44514  0.43509  Biso   1.000  C
  C501     1.0000 0.75777  0.47636  0.43537  Biso   1.000  C
  C502     1.0000 0.79005  0.47527  0.43546  Biso   1.000  C
  C503     1.0000 0.79091  0.50653  0.43585  Biso   1.000  C
  C504     1.0000 0.82312  0.50553  0.43582  Biso   1.000  C
  C505     1.0000 0.82394  0.53682  0.43607  Biso   1.000  C
  C506     1.0000 0.85613  0.53583  0.43596  Biso   1.000  C
  C507     1.0000 0.85701  0.56711  0.43566  Biso   1.000  C
  C508     1.0000 0.88921  0.56610  0.43532  Biso   1.000  C
  C509     1.0000 0.89003  0.59742  0.43504  Biso   1.000  C
  C510     1.0000 0.92219  0.59643  0.43498  Biso   1.000  C
  C511     1.0000 0.92301  0.62776  0.43490  Biso   1.000  C
  C512     1.0000 0.95524  0.62668  0.43495  Biso   1.000  C
  C513     1.0000 0.95610  0.65797  0.43480  Biso   1.000  C
  C514     1.0000 0.98832  0.65691  0.43480  Biso   1.000  C
  C515     1.0000 0.98919  0.68818  0.43449  Biso   1.000  C
  C516     1.0000 0.35580  0.01957  0.43500  Biso   1.000  C
  C517     1.0000 0.38797  0.01867  0.43515  Biso   1.000  C
  C518     1.0000 0.38902  0.04991  0.43529  Biso   1.000  C
  C519     1.0000 0.42115  0.04908  0.43529  Biso   1.000  C
  C520     1.0000 0.42214  0.08036  0.43555  Biso   1.000  C
  C521     1.0000 0.45426  0.07955  0.43538  Biso   1.000  C
  C522     1.0000 0.45532  0.11079  0.43532  Biso   1.000  C
  C523     1.0000 0.48745  0.10997  0.43504  Biso   1.000  C
  C524     1.0000 0.48846  0.14122  0.43494  Biso   1.000  C
  C525     1.0000 0.52059  0.14040  0.43480  Biso   1.000  C
  C526     1.0000 0.52162  0.17163  0.43490  Biso   1.000  C
  C527     1.0000 0.55378  0.17077  0.43492  Biso   1.000  C
  C528     1.0000 0.55486  0.20196  0.43509  Biso   1.000  C
  C529     1.0000 0.58710  0.20099  0.43491  Biso   1.000  C
  C530     1.0000 0.58816  0.23219  0.43493  Biso   1.000  C
  C531     1.0000 0.62039  0.23121  0.43476  Biso   1.000  C
  C532     1.0000 0.62150  0.26238  0.43494  Biso   1.000  C
  C533     1.0000 0.65379  0.26132  0.43479  Biso   1.000  C
  C534     1.0000 0.65487  0.29248  0.43483  Biso   1.000  C
  C535     1.0000 0.68713  0.29146  0.43450  Biso   1.000  C
  C536     1.0000 0.68818  0.32262  0.43449  Biso   1.000  C
  C537     1.0000 0.72045  0.32158  0.43420  Biso   1.000  C
  C538     1.0000 0.72151  0.35273  0.43430  Biso   1.000  C
  C539     1.0000 0.75384  0.35157  0.43420  Biso   1.000  C
  C540     1.0000 0.75486  0.38277  0.43452  Biso   1.000  C
  C541     1.0000 0.78711  0.38169  0.43457  Biso   1.000  C
  C542     1.0000 0.78809  0.41290  0.43491  Biso   1.000  C
  C543     1.0000 0.82036  0.41184  0.43493  Biso   1.000  C
  C544     1.0000 0.82133  0.44306  0.43516  Biso   1.000  C
  C545     1.0000 0.85355  0.44201  0.43522  Biso   1.000  C
  C546     1.0000 0.85440  0.47329  0.43558  Biso   1.000  C
  C547     1.0000 0.88660  0.47228  0.43571  Biso   1.000  C
  C548     1.0000 0.88741  0.50357  0.43582  Biso   1.000  C
  C549     1.0000 0.91964  0.50250  0.43555  Biso   1.000  C
  C550     1.0000 0.92045  0.53380  0.43538  Biso   1.000  C
  C551     1.0000 0.95264  0.53278  0.43508  Biso   1.000  C
  C552     1.0000 0.95341  0.56411  0.43503  Biso   1.000  C
  C553     1.0000 0.98561  0.56307  0.43502  Biso   1.000  C
  C554     1.0000 0.98646  0.59438  0.43508  Biso   1.000  C
  C555     1.0000 0.45231  0.01688  0.43506  Biso   1.000  C
  C556     1.0000 0.48442  0.01609  0.43503  Biso   1.000  C
  C557     1.0000 0.48542  0.04736  0.43508  Biso   1.000  C
  C558     1.0000 0.51753  0.04659  0.43503  Biso   1.000  C
  C559     1.0000 0.51862  0.07781  0.43498  Biso   1.000  C
  C560     1.0000 0.55077  0.07699  0.43490  Biso   1.000  C
  C561     1.0000 0.55178  0.10824  0.43479  Biso   1.000  C
  C562     1.0000 0.58393  0.10739  0.43474  Biso   1.000  C
  C563     1.0000 0.58500  0.13860  0.43472  Biso   1.000  C
  C564     1.0000 0.61723  0.13762  0.43452  Biso   1.000  C
  C565     1.0000 0.61831  0.16880  0.43457  Biso   1.000  C
  C566     1.0000 0.65054  0.16782  0.43426  Biso   1.000  C
  C567     1.0000 0.65159  0.19901  0.43440  Biso   1.000  C
  C568     1.0000 0.68385  0.19801  0.43421  Biso   1.000  C
  C569     1.0000 0.68501  0.22915  0.43446  Biso   1.000  C
  C570     1.0000 0.71728  0.22813  0.43415  Biso   1.000  C
  C571     1.0000 0.71838  0.25929  0.43418  Biso   1.000  C
  C572     1.0000 0.75064  0.25822  0.43374  Biso   1.000  C
  C573     1.0000 0.75173  0.28938  0.43380  Biso   1.000  C
  C574     1.0000 0.78408  0.28819  0.43359  Biso   1.000  C
  C575     1.0000 0.78511  0.31935  0.43391  Biso   1.000  C
  C576     1.0000 0.81739  0.31825  0.43386  Biso   1.000  C
  C577     1.0000 0.81836  0.34946  0.43426  Biso   1.000  C
  C578     1.0000 0.85060  0.34841  0.43440  Biso   1.000  C
  C579     1.0000 0.85161  0.37961  0.43476  Biso   1.000  C
  C580     1.0000 0.88388  0.37850  0.43494  Biso   1.000  C
  C581     1.0000 0.88480  0.40975  0.43518  Biso   1.000  C
  C582     1.0000 0.91700  0.40871  0.43526  Biso   1.000  C
  C583     1.0000 0.91786  0.44001  0.43547  Biso   1.000  C
  C584     1.0000 0.95009  0.43892  0.43529  Biso   1.000  C
  C585     1.0000 0.95092  0.47023  0.43529  Biso   1.000  C
  C586     1.0000 0.98312  0.46919  0.43506  Biso   1.000  C
  C587     1.0000 0.98391  0.50051  0.43503  Biso   1.000  C
  C588     1.0000 0.54868  0.01439  0.43502  Biso   1.000  C
  C589     1.0000 0.58084  0.01354  0.43508  Biso   1.000  C
  C590     1.0000 0.58191  0.04476  0.43495  Biso   1.000  C
  C591     1.0000 0.61407  0.04390  0.43480  Biso   1.000  C
  C592     1.0000 0.61509  0.07516  0.43462  Biso   1.000  C
  C593     1.0000 0.64727  0.07424  0.43430  Biso   1.000  C
  C594     1.0000 0.64843  0.10542  0.43420  Biso   1.000  C
  C595     1.0000 0.68065  0.10446  0.43391  Biso   1.000  C
  C596     1.0000 0.68175  0.13564  0.43386  Biso   1.000  C
  C597     1.0000 0.71397  0.13466  0.43356  Biso   1.000  C
  C598     1.0000 0.71507  0.16582  0.43375  Biso   1.000  C
  C599     1.0000 0.74734  0.16476  0.43353  Biso   1.000  C
  C600     1.0000 0.74848  0.19591  0.43370  Biso   1.000  C
  C601     1.0000 0.78077  0.19479  0.43337  Biso   1.000  C
  C602     1.0000 0.78185  0.22597  0.43334  Biso   1.000  C
  C603     1.0000 0.81416  0.22483  0.43306  Biso   1.000  C
  C604     1.0000 0.81531  0.25596  0.43320  Biso   1.000  C
  C605     1.0000 0.84760  0.25485  0.43318  Biso   1.000  C
  C606     1.0000 0.84863  0.28603  0.43356  Biso   1.000  C
  C607     1.0000 0.88090  0.28493  0.43375  Biso   1.000  C
  C608     1.0000 0.88186  0.31615  0.43421  Biso   1.000  C
  C609     1.0000 0.91416  0.31499  0.43446  Biso   1.000  C
  C610     1.0000 0.91511  0.34621  0.43479  Biso   1.000  C
  C611     1.0000 0.94736  0.34513  0.43483  Biso   1.000  C
  C612     1.0000 0.94823  0.37640  0.43504  Biso   1.000  C
  C613     1.0000 0.98043  0.37536  0.43500  Biso   1.000  C
  C614     1.0000 0.98133  0.40664  0.43515  Biso   1.000  C
  C615     1.0000 0.64523  0.01168  0.43480  Biso   1.000  C
  C616     1.0000 0.67738  0.01081  0.43449  Biso   1.000  C
  C617     1.0000 0.67842  0.04203  0.43420  Biso   1.000  C
  C618     1.0000 0.71062  0.04110  0.43380  Biso   1.000  C
  C619     1.0000 0.71181  0.07226  0.43359  Biso   1.000  C
  C620     1.0000 0.74404  0.07127  0.43320  Biso   1.000  C
  C621     1.0000 0.74515  0.10245  0.43318  Biso   1.000  C
  C622     1.0000 0.77741  0.10140  0.43299  Biso   1.000  C
  C623     1.0000 0.77856  0.13253  0.43313  Biso   1.000  C
  C624     1.0000 0.81088  0.13139  0.43286  Biso   1.000  C
  C625     1.0000 0.81198  0.16254  0.43300  Biso   1.000  C
  C626     1.0000 0.84425  0.16144  0.43272  Biso   1.000  C
  C627     1.0000 0.84535  0.19259  0.43284  Biso   1.000  C
  C628     1.0000 0.87766  0.19145  0.43278  Biso   1.000  C
  C629     1.0000 0.87880  0.22259  0.43299  Biso   1.000  C
  C630     1.0000 0.91110  0.22144  0.43313  Biso   1.000  C
  C631     1.0000 0.91211  0.25266  0.43353  Biso   1.000  C
  C632     1.0000 0.94439  0.25152  0.43370  Biso   1.000  C
  C633     1.0000 0.94541  0.28272  0.43415  Biso   1.000  C
  C634     1.0000 0.97767  0.28162  0.43418  Biso   1.000  C
  C635     1.0000 0.97859  0.31287  0.43450  Biso   1.000  C
  C636     1.0000 0.74178  0.00886  0.43374  Biso   1.000  C
  C637     1.0000 0.77403  0.00782  0.43334  Biso   1.000  C
  C638     1.0000 0.77517  0.03899  0.43306  Biso   1.000  C
  C639     1.0000 0.80741  0.03794  0.43284  Biso   1.000  C
  C640     1.0000 0.80855  0.06911  0.43278  Biso   1.000  C
  C641     1.0000 0.84083  0.06801  0.43246  Biso   1.000  C
  C642     1.0000 0.84204  0.09914  0.43249  Biso   1.000  C
  C643     1.0000 0.87433  0.09803  0.43221  Biso   1.000  C
  C644     1.0000 0.87543  0.12918  0.43235  Biso   1.000  C
  C645     1.0000 0.90772  0.12804  0.43221  Biso   1.000  C
  C646     1.0000 0.90884  0.15917  0.43246  Biso   1.000  C
  C647     1.0000 0.94118  0.15796  0.43249  Biso   1.000  C
  C648     1.0000 0.94227  0.18912  0.43286  Biso   1.000  C
  C649     1.0000 0.97452  0.18802  0.43300  Biso   1.000  C
  C650     1.0000 0.97557  0.21923  0.43337  Biso   1.000  C
  C651     1.0000 0.83856  0.00569  0.43272  Biso   1.000  C
  C652     1.0000 0.87082  0.00461  0.43235  Biso   1.000  C
  C653     1.0000 0.87196  0.03575  0.43221  Biso   1.000  C
  C654     1.0000 0.90426  0.03460  0.43194  Biso   1.000  C
  C655     1.0000 0.90545  0.06573  0.43188  Biso   1.000  C
  C656     1.0000 0.93773  0.06458  0.43173  Biso   1.000  C
  C657     1.0000 0.93886  0.09574  0.43194  Biso   1.000  C
  C658     1.0000 0.97118  0.09455  0.43188  Biso   1.000  C
  C659     1.0000 0.97235  0.12567  0.43221  Biso   1.000  C
  C660     1.0000 0.93542  0.00231  0.43173  Biso   1.000  C
  C661     1.0000 0.96772  0.00114  0.43161  Biso   1.000  C
  C662     1.0000 0.96886  0.03228  0.43161  Biso   1.000  C
  C663     1.0000 0.00231  0.93542  0.56827  Biso   1.000  C
  C664     1.0000 0.00114  0.96772  0.56839  Biso   1.000  C
  C665     1.0000 0.03228  0.96886  0.56839  Biso   1.000  C
  C666     1.0000 0.00569  0.83856  0.56728  Biso   1.000  C
  C667     1.0000 0.00461  0.87082  0.56765  Biso   1.000  C
  C668     1.0000 0.03575  0.87196  0.56779  Biso   1.000  C
  C669     1.0000 0.03460  0.90426  0.56806  Biso   1.000  C
  C670     1.0000 0.06573  0.90545  0.56812  Biso   1.000  C
  C671     1.0000 0.06458  0.93773  0.56827  Biso   1.000  C
  C672     1.0000 0.09574  0.93886  0.56806  Biso   1.000  C
  C673     1.0000 0.09455  0.97118  0.56812  Biso   1.000  C
  C674     1.0000 0.12567  0.97235  0.56779  Biso   1.000  C
  C675     1.0000 0.00886  0.74178  0.56626  Biso   1.000  C
  C676     1.0000 0.00782  0.77403  0.56666  Biso   1.000  C
  C677     1.0000 0.03899  0.77517  0.56694  Biso   1.000  C
  C678     1.0000 0.03794  0.80741  0.56716  Biso   1.000  C
  C679     1.0000 0.06911  0.80855  0.56722  Biso   1.000  C
  C680     1.0000 0.06801  0.84083  0.56754  Biso   1.000  C
  C681     1.0000 0.09914  0.84204  0.56751  Biso   1.000  C
  C682     1.0000 0.09803  0.87433  0.56779  Biso   1.000  C
  C683     1.0000 0.12918  0.87543  0.56765  Biso   1.000  C
  C684     1.0000 0.12804  0.90772  0.56779  Biso   1.000  C
  C685     1.0000 0.15917  0.90884  0.56754  Biso   1.000  C
  C686     1.0000 0.15796  0.94118  0.56751  Biso   1.000  C
  C687     1.0000 0.18912  0.94227  0.56714  Biso   1.000  C
  C688     1.0000 0.18802  0.97452  0.56700  Biso   1.000  C
  C689     1.0000 0.21923  0.97557  0.56663  Biso   1.000  C
  C690     1.0000 0.01168  0.64523  0.56520  Biso   1.000  C
  C691     1.0000 0.01081  0.67738  0.56551  Biso   1.000  C
  C692     1.0000 0.04203  0.67842  0.56580  Biso   1.000  C
  C693     1.0000 0.04110  0.71062  0.56620  Biso   1.000  C
  C694     1.0000 0.07226  0.71181  0.56641  Biso   1.000  C
  C695     1.0000 0.07127  0.74404  0.56680  Biso   1.000  C
  C696     1.0000 0.10245  0.74515  0.56682  Biso   1.000  C
  C697     1.0000 0.10140  0.77741  0.56701  Biso   1.000  C
  C698     1.0000 0.13253  0.77856  0.56687  Biso   1.000  C
  C699     1.0000 0.13139  0.81088  0.56714  Biso   1.000  C
  C700     1.0000 0.16254  0.81198  0.56700  Biso   1.000  C
  C701     1.0000 0.16144  0.84425  0.56728  Biso   1.000  C
  C702     1.0000 0.19259  0.84535  0.56716  Biso   1.000  C
  C703     1.0000 0.19145  0.87766  0.56722  Biso   1.000  C
  C704     1.0000 0.22259  0.87880  0.56701  Biso   1.000  C
  C705     1.0000 0.22144  0.91110  0.56687  Biso   1.000  C
  C706     1.0000 0.25266  0.91211  0.56647  Biso   1.000  C
  C707     1.0000 0.25152  0.94439  0.56630  Biso   1.000  C
  C708     1.0000 0.28272  0.94541  0.56585  Biso   1.000  C
  C709     1.0000 0.28162  0.97767  0.56582  Biso   1.000  C
  C710     1.0000 0.31287  0.97859  0.56550  Biso   1.000  C
  C711     1.0000 0.01439  0.54868  0.56498  Biso   1.000  C
  C712     1.0000 0.01354  0.58084  0.56492  Biso   1.000  C
  C713     1.0000 0.04476  0.58191  0.56505  Biso   1.000  C
  C714     1.0000 0.04390  0.61407  0.56520  Biso   1.000  C
  C715     1.0000 0.07516  0.61509  0.56538  Biso   1.000  C
  C716     1.0000 0.07424  0.64727  0.56570  Biso   1.000  C
  C717     1.0000 0.10542  0.64843  0.56580  Biso   1.000  C
  C718     1.0000 0.10446  0.68065  0.56609  Biso   1.000  C
  C719     1.0000 0.13564  0.68175  0.56614  Biso   1.000  C
  C720     1.0000 0.13466  0.71397  0.56644  Biso   1.000  C
  C721     1.0000 0.16582  0.71507  0.56625  Biso   1.000  C
  C722     1.0000 0.16476  0.74734  0.56647  Biso   1.000  C
  C723     1.0000 0.19591  0.74848  0.56630  Biso   1.000  C
  C724     1.0000 0.19479  0.78077  0.56663  Biso   1.000  C
  C725     1.0000 0.22597  0.78185  0.56666  Biso   1.000  C
  C726     1.0000 0.22483  0.81416  0.56694  Biso   1.000  C
  C727     1.0000 0.25596  0.81531  0.56680  Biso   1.000  C
  C728     1.0000 0.25485  0.84760  0.56682  Biso   1.000  C
  C729     1.0000 0.28603  0.84863  0.56644  Biso   1.000  C
  C730     1.0000 0.28493  0.88090  0.56625  Biso   1.000  C
  C731     1.0000 0.31615  0.88186  0.56579  Biso   1.000  C
  C732     1.0000 0.31499  0.91416  0.56554  Biso   1.000  C
  C733     1.0000 0.34621  0.91511  0.56521  Biso   1.000  C
  C734     1.0000 0.34513  0.94736  0.56517  Biso   1.000  C
  C735     1.0000 0.37640  0.94823  0.56496  Biso   1.000  C
  C736     1.0000 0.37536  0.98043  0.56500  Biso   1.000  C
  C737     1.0000 0.40664  0.98133  0.56485  Biso   1.000  C
  C738     1.0000 0.01688  0.45231  0.56494  Biso   1.000  C
  C739     1.0000 0.01609  0.48442  0.56497  Biso   1.000  C
  C740     1.0000 0.04736  0.48542  0.56492  Biso   1.000  C
  C741     1.0000 0.04659  0.51753  0.56497  Biso   1.000  C
  C742     1.0000 0.07781  0.51862  0.56502  Biso   1.000  C
  C743     1.0000 0.07699  0.55077  0.56510  Biso   1.000  C
  C744     1.0000 0.10824  0.55178  0.56521  Biso   1.000  C
  C745     1.0000 0.10739  0.58393  0.56526  Biso   1.000  C
  C746     1.0000 0.13860  0.58500  0.56528  Biso   1.000  C
  C747     1.0000 0.13762  0.61723  0.56548  Biso   1.000  C
  C748     1.0000 0.16880  0.61831  0.56543  Biso   1.000  C
  C749     1.0000 0.16782  0.65054  0.56574  Biso   1.000  C
  C750     1.0000 0.19901  0.65159  0.56560  Biso   1.000  C
  C751     1.0000 0.19801  0.68385  0.56579  Biso   1.000  C
  C752     1.0000 0.22915  0.68501  0.56554  Biso   1.000  C
  C753     1.0000 0.22813  0.71728  0.56585  Biso   1.000  C
  C754     1.0000 0.25929  0.71838  0.56582  Biso   1.000  C
  C755     1.0000 0.25822  0.75064  0.56626  Biso   1.000  C
  C756     1.0000 0.28938  0.75173  0.56620  Biso   1.000  C
  C757     1.0000 0.28819  0.78408  0.56641  Biso   1.000  C
  C758     1.0000 0.31935  0.78511  0.56609  Biso   1.000  C
  C759     1.0000 0.31825  0.81739  0.56614  Biso   1.000  C
  C760     1.0000 0.34946  0.81836  0.56574  Biso   1.000  C
  C761     1.0000 0.34841  0.85060  0.56560  Biso   1.000  C
  C762     1.0000 0.37961  0.85161  0.56524  Biso   1.000  C
  C763     1.0000 0.37850  0.88388  0.56506  Biso   1.000  C
  C764     1.0000 0.40975  0.88480  0.56482  Biso   1.000  C
  C765     1.0000 0.40871  0.91700  0.56474  Biso   1.000  C
  C766     1.0000 0.44001  0.91786  0.56453  Biso   1.000  C
  C767     1.0000 0.43892  0.95009  0.56471  Biso   1.000  C
  C768     1.0000 0.47023  0.95092  0.56471  Biso   1.000  C
  C769     1.0000 0.46919  0.98312  0.56494  Biso   1.000  C
  C770     1.0000 0.50051  0.98391  0.56497  Biso   1.000  C
  C771     1.0000 0.01957  0.35580  0.56500  Biso   1.000  C
  C772     1.0000 0.01867  0.38797  0.56485  Biso   1.000  C
  C773     1.0000 0.04991  0.38902  0.56471  Biso   1.000  C
  C774     1.0000 0.04908  0.42115  0.56471  Biso   1.000  C
  C775     1.0000 0.08036  0.42214  0.56445  Biso   1.000  C
  C776     1.0000 0.07955  0.45426  0.56462  Biso   1.000  C
  C777     1.0000 0.11079  0.45532  0.56468  Biso   1.000  C
  C778     1.0000 0.10997  0.48745  0.56496  Biso   1.000  C
  C779     1.0000 0.14122  0.48846  0.56506  Biso   1.000  C
  C780     1.0000 0.14040  0.52059  0.56520  Biso   1.000  C
  C781     1.0000 0.17163  0.52162  0.56510  Biso   1.000  C
  C782     1.0000 0.17077  0.55378  0.56508  Biso   1.000  C
  C783     1.0000 0.20196  0.55486  0.56491  Biso   1.000  C
  C784     1.0000 0.20099  0.58710  0.56509  Biso   1.000  C
  C785     1.0000 0.23219  0.58816  0.56507  Biso   1.000  C
  C786     1.0000 0.23121  0.62039  0.56524  Biso   1.000  C
  C787     1.0000 0.26238  0.62150  0.56506  Biso   1.000  C
  C788     1.0000 0.26132  0.65379  0.56521  Biso   1.000  C
  C789     1.0000 0.29248  0.65487  0.56517  Biso   1.000  C
  C790     1.0000 0.29146  0.68713  0.56550  Biso   1.000  C
  C791     1.0000 0.32262  0.68818  0.56551  Biso   1.000  C
  C792     1.0000 0.32158  0.72045  0.56580  Biso   1.000  C
  C793     1.0000 0.35273  0.72151  0.56570  Biso   1.000  C
  C794     1.0000 0.35157  0.75384  0.56580  Biso   1.000  C
  C795     1.0000 0.38277  0.75486  0.56548  Biso   1.000  C
  C796     1.0000 0.38169  0.78711  0.56543  Biso   1.000  C
  C797     1.0000 0.41290  0.78809  0.56509  Biso   1.000  C
  C798     1.0000 0.41184  0.82036  0.56507  Biso   1.000  C
  C799     1.0000 0.44306  0.82133  0.56484  Biso   1.000  C
  C800     1.0000 0.44201  0.85355  0.56478  Biso   1.000  C
  C801     1.0000 0.47329  0.85440  0.56442  Biso   1.000  C
  C802     1.0000 0.47228  0.88660  0.56429  Biso   1.000  C
  C803     1.0000 0.50357  0.88741  0.56418  Biso   1.000  C
  C804     1.0000 0.50250  0.91964  0.56445  Biso   1.000  C
  C805     1.0000 0.53380  0.92045  0.56462  Biso   1.000  C
  C806     1.0000 0.53278  0.95264  0.56492  Biso   1.000  C
  C807     1.0000 0.56411  0.95341  0.56497  Biso   1.000  C
  C808     1.0000 0.56307  0.98561  0.56498  Biso   1.000  C
  C809     1.0000 0.59438  0.98646  0.56492  Biso   1.000  C
  C810     1.0000 0.02233  0.25929  0.56582  Biso   1.000  C
  C811     1.0000 0.02141  0.29146  0.56550  Biso   1.000  C
  C812     1.0000 0.05264  0.29248  0.56517  Biso   1.000  C
  C813     1.0000 0.05177  0.32463  0.56496  Biso   1.000  C
  C814     1.0000 0.08300  0.32571  0.56474  Biso   1.000  C
  C815     1.0000 0.08214  0.35787  0.56453  Biso   1.000  C
  C816     1.0000 0.11340  0.35888  0.56429  Biso   1.000  C
  C817     1.0000 0.11259  0.39098  0.56418  Biso   1.000  C
  C818     1.0000 0.14387  0.39197  0.56404  Biso   1.000  C
  C819     1.0000 0.14299  0.42412  0.56434  Biso   1.000  C
  C820     1.0000 0.17424  0.42510  0.56438  Biso   1.000  C
  C821     1.0000 0.17338  0.45726  0.56479  Biso   1.000  C
  C822     1.0000 0.20463  0.45825  0.56461  Biso   1.000  C
  C823     1.0000 0.20377  0.49041  0.56483  Biso   1.000  C
  C824     1.0000 0.23499  0.49146  0.56449  Biso   1.000  C
  C825     1.0000 0.23413  0.52364  0.56463  Biso   1.000  C
  C826     1.0000 0.26532  0.52473  0.56454  Biso   1.000  C
  C827     1.0000 0.26438  0.55694  0.56484  Biso   1.000  C
  C828     1.0000 0.29556  0.55799  0.56478  Biso   1.000  C
  C829     1.0000 0.29455  0.59025  0.56482  Biso   1.000  C
  C830     1.0000 0.32571  0.59129  0.56474  Biso   1.000  C
  C831     1.0000 0.32463  0.62360  0.56496  Biso   1.000  C
  C832     1.0000 0.35580  0.62464  0.56500  Biso   1.000  C
  C833     1.0000 0.35477  0.65691  0.56520  Biso   1.000  C
  C834     1.0000 0.38593  0.65797  0.56520  Biso   1.000  C
  C835     1.0000 0.38491  0.69025  0.56538  Biso   1.000  C
  C836     1.0000 0.41607  0.69133  0.56526  Biso   1.000  C
  C837     1.0000 0.41500  0.72361  0.56528  Biso   1.000  C
  C838     1.0000 0.44622  0.72455  0.56508  Biso   1.000  C
  C839     1.0000 0.44514  0.75683  0.56491  Biso   1.000  C
  C840     1.0000 0.47636  0.75777  0.56463  Biso   1.000  C
  C841     1.0000 0.47527  0.79005  0.56454  Biso   1.000  C
  C842     1.0000 0.50653  0.79091  0.56415  Biso   1.000  C
  C843     1.0000 0.50553  0.82312  0.56418  Biso   1.000  C
  C844     1.0000 0.53682  0.82394  0.56393  Biso   1.000  C
  C845     1.0000 0.53583  0.85613  0.56404  Biso   1.000  C
  C846     1.0000 0.56711  0.85701  0.56434  Biso   1.000  C
  C847     1.0000 0.56610  0.88921  0.56468  Biso   1.000  C
  C848     1.0000 0.59742  0.89003  0.56496  Biso   1.000  C
  C849     1.0000 0.59643  0.92219  0.56502  Biso   1.000  C
  C850     1.0000 0.62776  0.92301  0.56510  Biso   1.000  C
  C851     1.0000 0.62668  0.95524  0.56505  Biso   1.000  C
  C852     1.0000 0.65797  0.95610  0.56520  Biso   1.000  C
  C853     1.0000 0.65691  0.98832  0.56520  Biso   1.000  C
  C854     1.0000 0.68818  0.98919  0.56551  Biso   1.000  C
  C855     1.0000 0.02548  0.16254  0.56700  Biso   1.000  C
  C856     1.0000 0.02443  0.19479  0.56663  Biso   1.000  C
  C857     1.0000 0.05561  0.19591  0.56630  Biso   1.000  C
  C858     1.0000 0.05459  0.22813  0.56585  Biso   1.000  C
  C859     1.0000 0.08584  0.22915  0.56554  Biso   1.000  C
  C860     1.0000 0.08489  0.26132  0.56521  Biso   1.000  C
  C861     1.0000 0.11612  0.26238  0.56506  Biso   1.000  C
  C862     1.0000 0.11520  0.29455  0.56482  Biso   1.000  C
  C863     1.0000 0.14645  0.29556  0.56478  Biso   1.000  C
  C864     1.0000 0.14560  0.32769  0.56442  Biso   1.000  C
  C865     1.0000 0.17688  0.32864  0.56418  Biso   1.000  C
  C866     1.0000 0.17606  0.36077  0.56393  Biso   1.000  C
  C867     1.0000 0.20733  0.36172  0.56387  Biso   1.000  C
  C868     1.0000 0.20644  0.39389  0.56398  Biso   1.000  C
  C869     1.0000 0.23769  0.39490  0.56402  Biso   1.000  C
  C870     1.0000 0.23683  0.42705  0.56417  Biso   1.000  C
  C871     1.0000 0.26809  0.42801  0.56407  Biso   1.000  C
  C872     1.0000 0.26715  0.46023  0.56408  Biso   1.000  C
  C873     1.0000 0.29836  0.46125  0.56396  Biso   1.000  C
  C874     1.0000 0.29744  0.49347  0.56415  Biso   1.000  C
  C875     1.0000 0.32864  0.49447  0.56418  Biso   1.000  C
  C876     1.0000 0.32769  0.52671  0.56442  Biso   1.000  C
  C877     1.0000 0.35888  0.52772  0.56429  Biso   1.000  C
  C878     1.0000 0.35787  0.55999  0.56453  Biso   1.000  C
  C879     1.0000 0.38902  0.56108  0.56471  Biso   1.000  C
  C880     1.0000 0.38797  0.59336  0.56485  Biso   1.000  C
  C881     1.0000 0.41916  0.59438  0.56492  Biso   1.000  C
  C882     1.0000 0.41809  0.62668  0.56505  Biso   1.000  C
  C883     1.0000 0.44923  0.62776  0.56510  Biso   1.000  C
  C884     1.0000 0.44822  0.66003  0.56521  Biso   1.000  C
  C885     1.0000 0.47941  0.66100  0.56520  Biso   1.000  C
  C886     1.0000 0.47838  0.69325  0.56510  Biso   1.000  C
  C887     1.0000 0.50959  0.69418  0.56483  Biso   1.000  C
  C888     1.0000 0.50854  0.72645  0.56449  Biso   1.000  C
  C889     1.0000 0.53977  0.72738  0.56408  Biso   1.000  C
  C890     1.0000 0.53875  0.75961  0.56396  Biso   1.000  C
  C891     1.0000 0.57004  0.76047  0.56383  Biso   1.000  C
  C892     1.0000 0.56905  0.79267  0.56387  Biso   1.000  C
  C893     1.0000 0.60033  0.79356  0.56398  Biso   1.000  C
  C894     1.0000 0.59935  0.82576  0.56438  Biso   1.000  C
  C895     1.0000 0.63064  0.82662  0.56479  Biso   1.000  C
  C896     1.0000 0.62968  0.85878  0.56506  Biso   1.000  C
  C897     1.0000 0.66100  0.85960  0.56520  Biso   1.000  C
  C898     1.0000 0.66003  0.89176  0.56521  Biso   1.000  C
  C899     1.0000 0.69133  0.89261  0.56526  Biso   1.000  C
  C900     1.0000 0.69025  0.92484  0.56538  Biso   1.000  C
  C901     1.0000 0.72151  0.92576  0.56570  Biso   1.000  C
  C902     1.0000 0.72045  0.95797  0.56580  Biso   1.000  C
  C903     1.0000 0.75173  0.95890  0.56620  Biso   1.000  C
  C904     1.0000 0.75064  0.99114  0.56626  Biso   1.000  C
  C905     1.0000 0.78185  0.99218  0.56666  Biso   1.000  C
  C906     1.0000 0.02882  0.06573  0.56812  Biso   1.000  C
  C907     1.0000 0.02765  0.09803  0.56779  Biso   1.000  C
  C908     1.0000 0.05882  0.09914  0.56751  Biso   1.000  C
  C909     1.0000 0.05773  0.13139  0.56714  Biso   1.000  C
  C910     1.0000 0.08890  0.13253  0.56687  Biso   1.000  C
  C911     1.0000 0.08789  0.16476  0.56647  Biso   1.000  C
  C912     1.0000 0.11910  0.16582  0.56625  Biso   1.000  C
  C913     1.0000 0.11814  0.19801  0.56579  Biso   1.000  C
  C914     1.0000 0.14940  0.19901  0.56560  Biso   1.000  C
  C915     1.0000 0.14839  0.23121  0.56524  Biso   1.000  C
  C916     1.0000 0.17964  0.23219  0.56507  Biso   1.000  C
  C917     1.0000 0.17867  0.26438  0.56484  Biso   1.000  C
  C918     1.0000 0.20995  0.26532  0.56454  Biso   1.000  C
  C919     1.0000 0.20909  0.29744  0.56415  Biso   1.000  C
  C920     1.0000 0.24039  0.29836  0.56396  Biso   1.000  C
  C921     1.0000 0.23953  0.33051  0.56383  Biso   1.000  C
  C922     1.0000 0.27078  0.33150  0.56391  Biso   1.000  C
  C923     1.0000 0.26989  0.36367  0.56394  Biso   1.000  C
  C924     1.0000 0.30116  0.36459  0.56404  Biso   1.000  C
  C925     1.0000 0.30026  0.39677  0.56396  Biso   1.000  C
  C926     1.0000 0.33150  0.39773  0.56391  Biso   1.000  C
  C927     1.0000 0.33051  0.42996  0.56383  Biso   1.000  C
  C928     1.0000 0.36172  0.43095  0.56387  Biso   1.000  C
  C929     1.0000 0.36077  0.46318  0.56393  Biso   1.000  C
  C930     1.0000 0.39197  0.46417  0.56404  Biso   1.000  C
  C931     1.0000 0.39098  0.49643  0.56418  Biso   1.000  C
  C932     1.0000 0.42214  0.49750  0.56445  Biso   1.000  C
  C933     1.0000 0.42115  0.52977  0.56471  Biso   1.000  C
  C934     1.0000 0.45231  0.53081  0.56494  Biso   1.000  C
  C935     1.0000 0.45132  0.56307  0.56498  Biso   1.000  C
  C936     1.0000 0.48247  0.56411  0.56497  Biso   1.000  C
  C937     1.0000 0.48138  0.59643  0.56502  Biso   1.000  C
  C938     1.0000 0.51255  0.59742  0.56496  Biso   1.000  C
  C939     1.0000 0.51154  0.62968  0.56506  Biso   1.000  C
  C940     1.0000 0.54274  0.63064  0.56479  Biso   1.000  C
  C941     1.0000 0.54175  0.66289  0.56461  Biso   1.000  C
  C942     1.0000 0.57295  0.66388  0.56417  Biso   1.000  C
  C943     1.0000 0.57199  0.69610  0.56407  Biso   1.000  C
  C944     1.0000 0.60323  0.69703  0.56396  Biso   1.000  C
  C945     1.0000 0.60227  0.72922  0.56391  Biso   1.000  C
  C946     1.0000 0.63356  0.73011  0.56394  Biso   1.000  C
  C947     1.0000 0.63259  0.76231  0.56402  Biso   1.000  C
  C948     1.0000 0.66388  0.76317  0.56417  Biso   1.000  C
  C949     1.0000 0.66289  0.79537  0.56461  Biso   1.000  C
  C950     1.0000 0.69418  0.79623  0.56483  Biso   1.000  C
  C951     1.0000 0.69325  0.82837  0.56510  Biso   1.000  C
  C952     1.0000 0.72455  0.82923  0.56508  Biso   1.000  C
  C953     1.0000 0.72361  0.86140  0.56528  Biso   1.000  C
  C954     1.0000 0.75486  0.86238  0.56548  Biso   1.000  C
  C955     1.0000 0.75384  0.89458  0.56580  Biso   1.000  C
  C956     1.0000 0.78511  0.89554  0.56609  Biso   1.000  C
  C957     1.0000 0.78408  0.92774  0.56641  Biso   1.000  C
  C958     1.0000 0.81531  0.92873  0.56680  Biso   1.000  C
  C959     1.0000 0.81416  0.96101  0.56694  Biso   1.000  C
  C960     1.0000 0.84535  0.96206  0.56716  Biso   1.000  C
  C961     1.0000 0.84425  0.99431  0.56728  Biso   1.000  C
  C962     1.0000 0.87543  0.99539  0.56765  Biso   1.000  C
  C963     1.0000 0.03114  0.00114  0.56839  Biso   1.000  C
  C964     1.0000 0.06227  0.00231  0.56827  Biso   1.000  C
  C965     1.0000 0.06114  0.03460  0.56806  Biso   1.000  C
  C966     1.0000 0.09228  0.03575  0.56779  Biso   1.000  C
  C967     1.0000 0.09116  0.06801  0.56754  Biso   1.000  C
  C968     1.0000 0.12234  0.06911  0.56722  Biso   1.000  C
  C969     1.0000 0.12120  0.10140  0.56701  Biso   1.000  C
  C970     1.0000 0.15240  0.10245  0.56682  Biso   1.000  C
  C971     1.0000 0.15137  0.13466  0.56644  Biso   1.000  C
  C972     1.0000 0.18261  0.13564  0.56614  Biso   1.000  C
  C973     1.0000 0.18164  0.16782  0.56574  Biso   1.000  C
  C974     1.0000 0.21289  0.16880  0.56543  Biso   1.000  C
  C975     1.0000 0.21191  0.20099  0.56509  Biso   1.000  C
  C976     1.0000 0.24317  0.20196  0.56491  Biso   1.000  C
  C977     1.0000 0.24223  0.23413  0.56463  Biso   1.000  C
  C978     1.0000 0.27355  0.23499  0.56449  Biso   1.000  C
  C979     1.0000 0.27262  0.26715  0.56408  Biso   1.000  C
  C980     1.0000 0.30390  0.26809  0.56407  Biso   1.000  C
  C981     1.0000 0.30297  0.30026  0.56396  Biso   1.000  C
  C982     1.0000 0.33424  0.30116  0.56404  Biso   1.000  C
  C983     1.0000 0.33333  0.33333  0.56402  Biso   1.000  C
  C984     1.0000 0.36459  0.33424  0.56404  Biso   1.000  C
  C985     1.0000 0.36367  0.36644  0.56394  Biso   1.000  C
  C986     1.0000 0.39490  0.36741  0.56402  Biso   1.000  C
  C987     1.0000 0.39389  0.39967  0.56398  Biso   1.000  C
  C988     1.0000 0.42510  0.40065  0.56438  Biso   1.000  C
  C989     1.0000 0.42412  0.43289  0.56434  Biso   1.000  C
  C990     1.0000 0.45532  0.43390  0.56468  Biso   1.000  C
  C991     1.0000 0.45426  0.46620  0.56462  Biso   1.000  C
  C992     1.0000 0.48542  0.46722  0.56492  Biso   1.000  C
  C993     1.0000 0.48442  0.49949  0.56497  Biso   1.000  C
  C994     1.0000 0.51558  0.50051  0.56497  Biso   1.000  C
  C995     1.0000 0.51458  0.53278  0.56492  Biso   1.000  C
  C996     1.0000 0.54574  0.53380  0.56462  Biso   1.000  C
  C997     1.0000 0.54468  0.56610  0.56468  Biso   1.000  C
  C998     1.0000 0.57588  0.56711  0.56434  Biso   1.000  C
  C999     1.0000 0.57490  0.59935  0.56438  Biso   1.000  C
  C1000    1.0000 0.60611  0.60033  0.56398  Biso   1.000  C
  C1001    1.0000 0.60510  0.63259  0.56402  Biso   1.000  C
  C1002    1.0000 0.63633  0.63356  0.56394  Biso   1.000  C
  C1003    1.0000 0.63541  0.66576  0.56404  Biso   1.000  C
  C1004    1.0000 0.66667  0.66667  0.56402  Biso   1.000  C
  C1005    1.0000 0.66576  0.69884  0.56404  Biso   1.000  C
  C1006    1.0000 0.69703  0.69974  0.56396  Biso   1.000  C
  C1007    1.0000 0.69610  0.73191  0.56407  Biso   1.000  C
  C1008    1.0000 0.72738  0.73285  0.56408  Biso   1.000  C
  C1009    1.0000 0.72645  0.76501  0.56449  Biso   1.000  C
  C1010    1.0000 0.75777  0.76587  0.56463  Biso   1.000  C
  C1011    1.0000 0.75683  0.79804  0.56491  Biso   1.000  C
  C1012    1.0000 0.78809  0.79901  0.56509  Biso   1.000  C
  C1013    1.0000 0.78711  0.83120  0.56543  Biso   1.000  C
  C1014    1.0000 0.81836  0.83218  0.56574  Biso   1.000  C
  C1015    1.0000 0.81739  0.86436  0.56614  Biso   1.000  C
  C1016    1.0000 0.84863  0.86534  0.56644  Biso   1.000  C
  C1017    1.0000 0.84760  0.89755  0.56682  Biso   1.000  C
  C1018    1.0000 0.87880  0.89860  0.56701  Biso   1.000  C
  C1019    1.0000 0.87766  0.93089  0.56722  Biso   1.000  C
  C1020    1.0000 0.90884  0.93199  0.56754  Biso   1.000  C
  C1021    1.0000 0.90772  0.96425  0.56779  Biso   1.000  C
  C1022    1.0000 0.93886  0.96540  0.56806  Biso   1.000  C
  C1023    1.0000 0.93773  0.99769  0.56827  Biso   1.000  C
  C1024    1.0000 0.96886  0.99886  0.56839  Biso   1.000  C
  C1025    1.0000 0.12457  0.00461  0.56765  Biso   1.000  C
  C1026    1.0000 0.15575  0.00569  0.56728  Biso   1.000  C
  C1027    1.0000 0.15465  0.03794  0.56716  Biso   1.000  C
  C1028    1.0000 0.18584  0.03899  0.56694  Biso   1.000  C
  C1029    1.0000 0.18469  0.07127  0.56680  Biso   1.000  C
  C1030    1.0000 0.21592  0.07226  0.56641  Biso   1.000  C
  C1031    1.0000 0.21489  0.10446  0.56609  Biso   1.000  C
  C1032    1.0000 0.24616  0.10542  0.56580  Biso   1.000  C
  C1033    1.0000 0.24514  0.13762  0.56548  Biso   1.000  C
  C1034    1.0000 0.27639  0.13860  0.56528  Biso   1.000  C
  C1035    1.0000 0.27545  0.17077  0.56508  Biso   1.000  C
  C1036    1.0000 0.30675  0.17163  0.56510  Biso   1.000  C
  C1037    1.0000 0.30582  0.20377  0.56483  Biso   1.000  C
  C1038    1.0000 0.33711  0.20463  0.56461  Biso   1.000  C
  C1039    1.0000 0.33612  0.23683  0.56417  Biso   1.000  C
  C1040    1.0000 0.36741  0.23769  0.56402  Biso   1.000  C
  C1041    1.0000 0.36644  0.26989  0.56394  Biso   1.000  C
  C1042    1.0000 0.39773  0.27078  0.56391  Biso   1.000  C
  C1043    1.0000 0.39677  0.30297  0.56396  Biso   1.000  C
  C1044    1.0000 0.42801  0.30390  0.56407  Biso   1.000  C
  C1045    1.0000 0.42705  0.33612  0.56417  Biso   1.000  C
  C1046    1.0000 0.45825  0.33711  0.56461  Biso   1.000  C
  C1047    1.0000 0.45726  0.36936  0.56479  Biso   1.000  C
  C1048    1.0000 0.48846  0.37032  0.56506  Biso   1.000  C
  C1049    1.0000 0.48745  0.40258  0.56496  Biso   1.000  C
  C1050    1.0000 0.51862  0.40357  0.56502  Biso   1.000  C
  C1051    1.0000 0.51753  0.43589  0.56497  Biso   1.000  C
  C1052    1.0000 0.54868  0.43693  0.56498  Biso   1.000  C
  C1053    1.0000 0.54769  0.46919  0.56494  Biso   1.000  C
  C1054    1.0000 0.57885  0.47023  0.56471  Biso   1.000  C
  C1055    1.0000 0.57786  0.50250  0.56445  Biso   1.000  C
  C1056    1.0000 0.60902  0.50357  0.56418  Biso   1.000  C
  C1057    1.0000 0.60803  0.53583  0.56404  Biso   1.000  C
  C1058    1.0000 0.63923  0.53682  0.56393  Biso   1.000  C
  C1059    1.0000 0.63828  0.56905  0.56387  Biso   1.000  C
  C1060    1.0000 0.66949  0.57004  0.56383  Biso   1.000  C
  C1061    1.0000 0.66850  0.60227  0.56391  Biso   1.000  C
  C1062    1.0000 0.69974  0.60323  0.56396  Biso   1.000  C
  C1063    1.0000 0.69884  0.63541  0.56404  Biso   1.000  C
  C1064    1.0000 0.73011  0.63633  0.56394  Biso   1.000  C
  C1065    1.0000 0.72922  0.66850  0.56391  Biso   1.000  C
  C1066    1.0000 0.76047  0.66949  0.56383  Biso   1.000  C
  C1067    1.0000 0.75961  0.70164  0.56396  Biso   1.000  C
  C1068    1.0000 0.79091  0.70256  0.56415  Biso   1.000  C
  C1069    1.0000 0.79005  0.73468  0.56454  Biso   1.000  C
  C1070    1.0000 0.82133  0.73562  0.56484  Biso   1.000  C
  C1071    1.0000 0.82036  0.76781  0.56507  Biso   1.000  C
  C1072    1.0000 0.85161  0.76879  0.56524  Biso   1.000  C
  C1073    1.0000 0.85060  0.80099  0.56560  Biso   1.000  C
  C1074    1.0000 0.88186  0.80199  0.56579  Biso   1.000  C
  C1075    1.0000 0.88090  0.83418  0.56625  Biso   1.000  C
  C1076    1.0000 0.91211  0.83524  0.56647  Biso   1.000  C
  C1077    1.0000 0.91110  0.86747  0.56687  Biso   1.000  C
  C1078    1.0000 0.94227  0.86861  0.56714  Biso   1.000  C
  C1079    1.0000 0.94118  0.90086  0.56751  Biso   1.000  C
  C1080    1.0000 0.97235  0.90197  0.56779  Biso   1.000  C
  C1081    1.0000 0.97118  0.93427  0.56812  Biso   1.000  C
  C1082    1.0000 0.21815  0.00782  0.56666  Biso   1.000  C
  C1083    1.0000 0.24936  0.00886  0.56626  Biso   1.000  C
  C1084    1.0000 0.24827  0.04110  0.56620  Biso   1.000  C
  C1085    1.0000 0.27955  0.04203  0.56580  Biso   1.000  C
  C1086    1.0000 0.27849  0.07424  0.56570  Biso   1.000  C
  C1087    1.0000 0.30975  0.07516  0.56538  Biso   1.000  C
  C1088    1.0000 0.30867  0.10739  0.56526  Biso   1.000  C
  C1089    1.0000 0.33997  0.10824  0.56521  Biso   1.000  C
  C1090    1.0000 0.33900  0.14040  0.56520  Biso   1.000  C
  C1091    1.0000 0.37032  0.14122  0.56506  Biso   1.000  C
  C1092    1.0000 0.36936  0.17338  0.56479  Biso   1.000  C
  C1093    1.0000 0.40065  0.17424  0.56438  Biso   1.000  C
  C1094    1.0000 0.39967  0.20644  0.56398  Biso   1.000  C
  C1095    1.0000 0.43095  0.20733  0.56387  Biso   1.000  C
  C1096    1.0000 0.42996  0.23953  0.56383  Biso   1.000  C
  C1097    1.0000 0.46125  0.24039  0.56396  Biso   1.000  C
  C1098    1.0000 0.46023  0.27262  0.56408  Biso   1.000  C
  C1099    1.0000 0.49146  0.27355  0.56449  Biso   1.000  C
  C1100    1.0000 0.49041  0.30582  0.56483  Biso   1.000  C
  C1101    1.0000 0.52162  0.30675  0.56510  Biso   1.000  C
  C1102    1.0000 0.52059  0.33900  0.56520  Biso   1.000  C
  C1103    1.0000 0.55178  0.33997  0.56521  Biso   1.000  C
  C1104    1.0000 0.55077  0.37224  0.56510  Biso   1.000  C
  C1105    1.0000 0.58191  0.37332  0.56505  Biso   1.000  C
  C1106    1.0000 0.58084  0.40562  0.56492  Biso   1.000  C
  C1107    1.0000 0.61203  0.40664  0.56485  Biso   1.000  C
  C1108    1.0000 0.61098  0.43892  0.56471  Biso   1.000  C
  C1109    1.0000 0.64213  0.44001  0.56453  Biso   1.000  C
  C1110    1.0000 0.64112  0.47228  0.56429  Biso   1.000  C
  C1111    1.0000 0.67231  0.47329  0.56442  Biso   1.000  C
  C1112    1.0000 0.67136  0.50553  0.56418  Biso   1.000  C
  C1113    1.0000 0.70256  0.50653  0.56415  Biso   1.000  C
  C1114    1.0000 0.70164  0.53875  0.56396  Biso   1.000  C
  C1115    1.0000 0.73285  0.53977  0.56408  Biso   1.000  C
  C1116    1.0000 0.73191  0.57199  0.56407  Biso   1.000  C
  C1117    1.0000 0.76317  0.57295  0.56417  Biso   1.000  C
  C1118    1.0000 0.76231  0.60510  0.56402  Biso   1.000  C
  C1119    1.0000 0.79356  0.60611  0.56398  Biso   1.000  C
  C1120    1.0000 0.79267  0.63828  0.56387  Biso   1.000  C
  C1121    1.0000 0.82394  0.63923  0.56393  Biso   1.000  C
  C1122    1.0000 0.82312  0.67136  0.56418  Biso   1.000  C
  C1123    1.0000 0.85440  0.67231  0.56442  Biso   1.000  C
  C1124    1.0000 0.85355  0.70444  0.56478  Biso   1.000  C
  C1125    1.0000 0.88480  0.70545  0.56482  Biso   1.000  C
  C1126    1.0000 0.88388  0.73762  0.56506  Biso   1.000  C
  C1127    1.0000 0.91511  0.73868  0.56521  Biso   1.000  C
  C1128    1.0000 0.91416  0.77085  0.56554  Biso   1.000  C
  C1129    1.0000 0.94541  0.77187  0.56585  Biso   1.000  C
  C1130    1.0000 0.94439  0.80409  0.56630  Biso   1.000  C
  C1131    1.0000 0.97557  0.80521  0.56663  Biso   1.000  C
  C1132    1.0000 0.97452  0.83746  0.56700  Biso   1.000  C
  C1133    1.0000 0.31182  0.01081  0.56551  Biso   1.000  C
  C1134    1.0000 0.34309  0.01168  0.56520  Biso   1.000  C
  C1135    1.0000 0.34203  0.04390  0.56520  Biso   1.000  C
  C1136    1.0000 0.37332  0.04476  0.56505  Biso   1.000  C
  C1137    1.0000 0.37224  0.07699  0.56510  Biso   1.000  C
  C1138    1.0000 0.40357  0.07781  0.56502  Biso   1.000  C
  C1139    1.0000 0.40258  0.10997  0.56496  Biso   1.000  C
  C1140    1.0000 0.43390  0.11079  0.56468  Biso   1.000  C
  C1141    1.0000 0.43289  0.14299  0.56434  Biso   1.000  C
  C1142    1.0000 0.46417  0.14387  0.56404  Biso   1.000  C
  C1143    1.0000 0.46318  0.17606  0.56393  Biso   1.000  C
  C1144    1.0000 0.49447  0.17688  0.56418  Biso   1.000  C
  C1145    1.0000 0.49347  0.20909  0.56415  Biso   1.000  C
  C1146    1.0000 0.52473  0.20995  0.56454  Biso   1.000  C
  C1147    1.0000 0.52364  0.24223  0.56463  Biso   1.000  C
  C1148    1.0000 0.55486  0.24317  0.56491  Biso   1.000  C
  C1149    1.0000 0.55378  0.27545  0.56508  Biso   1.000  C
  C1150    1.0000 0.58500  0.27639  0.56528  Biso   1.000  C
  C1151    1.0000 0.58393  0.30867  0.56526  Biso   1.000  C
  C1152    1.0000 0.61509  0.30975  0.56538  Biso   1.000  C
  C1153    1.0000 0.61407  0.34203  0.56520  Biso   1.000  C
  C1154    1.0000 0.64523  0.34309  0.56520  Biso   1.000  C
  C1155    1.0000 0.64420  0.37536  0.56500  Biso   1.000  C
  C1156    1.0000 0.67537  0.37640  0.56496  Biso   1.000  C
  C1157    1.0000 0.67429  0.40871  0.56474  Biso   1.000  C
  C1158    1.0000 0.70545  0.40975  0.56482  Biso   1.000  C
  C1159    1.0000 0.70444  0.44201  0.56478  Biso   1.000  C
  C1160    1.0000 0.73562  0.44306  0.56484  Biso   1.000  C
  C1161    1.0000 0.73468  0.47527  0.56454  Biso   1.000  C
  C1162    1.0000 0.76587  0.47636  0.56463  Biso   1.000  C
  C1163    1.0000 0.76501  0.50854  0.56449  Biso   1.000  C
  C1164    1.0000 0.79623  0.50959  0.56483  Biso   1.000  C
  C1165    1.0000 0.79537  0.54175  0.56461  Biso   1.000  C
  C1166    1.0000 0.82662  0.54274  0.56479  Biso   1.000  C
  C1167    1.0000 0.82576  0.57490  0.56438  Biso   1.000  C
  C1168    1.0000 0.85701  0.57588  0.56434  Biso   1.000  C
  C1169    1.0000 0.85613  0.60803  0.56404  Biso   1.000  C
  C1170    1.0000 0.88741  0.60902  0.56418  Biso   1.000  C
  C1171    1.0000 0.88660  0.64112  0.56429  Biso   1.000  C
  C1172    1.0000 0.91786  0.64213  0.56453  Biso   1.000  C
  C1173    1.0000 0.91700  0.67429  0.56474  Biso   1.000  C
  C1174    1.0000 0.94823  0.67537  0.56496  Biso   1.000  C
  C1175    1.0000 0.94736  0.70752  0.56517  Biso   1.000  C
  C1176    1.0000 0.97859  0.70854  0.56550  Biso   1.000  C
  C1177    1.0000 0.97767  0.74071  0.56582  Biso   1.000  C
  C1178    1.0000 0.40562  0.01354  0.56492  Biso   1.000  C
  C1179    1.0000 0.43693  0.01439  0.56498  Biso   1.000  C
  C1180    1.0000 0.43589  0.04659  0.56497  Biso   1.000  C
  C1181    1.0000 0.46722  0.04736  0.56492  Biso   1.000  C
  C1182    1.0000 0.46620  0.07955  0.56462  Biso   1.000  C
  C1183    1.0000 0.49750  0.08036  0.56445  Biso   1.000  C
  C1184    1.0000 0.49643  0.11259  0.56418  Biso   1.000  C
  C1185    1.0000 0.52772  0.11340  0.56429  Biso   1.000  C
  C1186    1.0000 0.52671  0.14560  0.56442  Biso   1.000  C
  C1187    1.0000 0.55799  0.14645  0.56478  Biso   1.000  C
  C1188    1.0000 0.55694  0.17867  0.56484  Biso   1.000  C
  C1189    1.0000 0.58816  0.17964  0.56507  Biso   1.000  C
  C1190    1.0000 0.58710  0.21191  0.56509  Biso   1.000  C
  C1191    1.0000 0.61831  0.21289  0.56543  Biso   1.000  C
  C1192    1.0000 0.61723  0.24514  0.56548  Biso   1.000  C
  C1193    1.0000 0.64843  0.24616  0.56580  Biso   1.000  C
  C1194    1.0000 0.64727  0.27849  0.56570  Biso   1.000  C
  C1195    1.0000 0.67842  0.27955  0.56580  Biso   1.000  C
  C1196    1.0000 0.67738  0.31182  0.56551  Biso   1.000  C
  C1197    1.0000 0.70854  0.31287  0.56550  Biso   1.000  C
  C1198    1.0000 0.70752  0.34513  0.56517  Biso   1.000  C
  C1199    1.0000 0.73868  0.34621  0.56521  Biso   1.000  C
  C1200    1.0000 0.73762  0.37850  0.56506  Biso   1.000  C
  C1201    1.0000 0.76879  0.37961  0.56524  Biso   1.000  C
  C1202    1.0000 0.76781  0.41184  0.56507  Biso   1.000  C
  C1203    1.0000 0.79901  0.41290  0.56509  Biso   1.000  C
  C1204    1.0000 0.79804  0.44514  0.56491  Biso   1.000  C
  C1205    1.0000 0.82923  0.44622  0.56508  Biso   1.000  C
  C1206    1.0000 0.82837  0.47838  0.56510  Biso   1.000  C
  C1207    1.0000 0.85960  0.47941  0.56520  Biso   1.000  C
  C1208    1.0000 0.85878  0.51154  0.56506  Biso   1.000  C
  C1209    1.0000 0.89003  0.51255  0.56496  Biso   1.000  C
  C1210    1.0000 0.88921  0.54468  0.56468  Biso   1.000  C
  C1211    1.0000 0.92045  0.54574  0.56462  Biso   1.000  C
  C1212    1.0000 0.91964  0.57786  0.56445  Biso   1.000  C
  C1213    1.0000 0.95092  0.57885  0.56471  Biso   1.000  C
  C1214    1.0000 0.95009  0.61098  0.56471  Biso   1.000  C
  C1215    1.0000 0.98133  0.61203  0.56485  Biso   1.000  C
  C1216    1.0000 0.98043  0.64420  0.56500  Biso   1.000  C
  C1217    1.0000 0.49949  0.01609  0.56497  Biso   1.000  C
  C1218    1.0000 0.53081  0.01688  0.56494  Biso   1.000  C
  C1219    1.0000 0.52977  0.04908  0.56471  Biso   1.000  C
  C1220    1.0000 0.56108  0.04991  0.56471  Biso   1.000  C
  C1221    1.0000 0.55999  0.08214  0.56453  Biso   1.000  C
  C1222    1.0000 0.59129  0.08300  0.56474  Biso   1.000  C
  C1223    1.0000 0.59025  0.11520  0.56482  Biso   1.000  C
  C1224    1.0000 0.62150  0.11612  0.56506  Biso   1.000  C
  C1225    1.0000 0.62039  0.14839  0.56524  Biso   1.000  C
  C1226    1.0000 0.65159  0.14940  0.56560  Biso   1.000  C
  C1227    1.0000 0.65054  0.18164  0.56574  Biso   1.000  C
  C1228    1.0000 0.68175  0.18261  0.56614  Biso   1.000  C
  C1229    1.0000 0.68065  0.21489  0.56609  Biso   1.000  C
  C1230    1.0000 0.71181  0.21592  0.56641  Biso   1.000  C
  C1231    1.0000 0.71062  0.24827  0.56620  Biso   1.000  C
  C1232    1.0000 0.74178  0.24936  0.56626  Biso   1.000  C
  C1233    1.0000 0.74071  0.28162  0.56582  Biso   1.000  C
  C1234    1.0000 0.77187  0.28272  0.56585  Biso   1.000  C
  C1235    1.0000 0.77085  0.31499  0.56554  Biso   1.000  C
  C1236    1.0000 0.80199  0.31615  0.56579  Biso   1.000  C
  C1237    1.0000 0.80099  0.34841  0.56560  Biso   1.000  C
  C1238    1.0000 0.83218  0.34946  0.56574  Biso   1.000  C
  C1239    1.0000 0.83120  0.38169  0.56543  Biso   1.000  C
  C1240    1.0000 0.86238  0.38277  0.56548  Biso   1.000  C
  C1241    1.0000 0.86140  0.41500  0.56528  Biso   1.000  C
  C1242    1.0000 0.89261  0.41607  0.56526  Biso   1.000  C
  C1243    1.0000 0.89176  0.44822  0.56521  Biso   1.000  C
  C1244    1.0000 0.92301  0.44923  0.56510  Biso   1.000  C
  C1245    1.0000 0.92219  0.48138  0.56502  Biso   1.000  C
  C1246    1.0000 0.95341  0.48247  0.56497  Biso   1.000  C
  C1247    1.0000 0.95264  0.51458  0.56492  Biso   1.000  C
  C1248    1.0000 0.98391  0.51558  0.56497  Biso   1.000  C
  C1249    1.0000 0.98312  0.54769  0.56494  Biso   1.000  C
  C1250    1.0000 0.59336  0.01867  0.56485  Biso   1.000  C
  C1251    1.0000 0.62464  0.01957  0.56500  Biso   1.000  C
  C1252    1.0000 0.62360  0.05177  0.56496  Biso   1.000  C
  C1253    1.0000 0.65487  0.05264  0.56517  Biso   1.000  C
  C1254    1.0000 0.65379  0.08489  0.56521  Biso   1.000  C
  C1255    1.0000 0.68501  0.08584  0.56554  Biso   1.000  C
  C1256    1.0000 0.68385  0.11814  0.56579  Biso   1.000  C
  C1257    1.0000 0.71507  0.11910  0.56625  Biso   1.000  C
  C1258    1.0000 0.71397  0.15137  0.56644  Biso   1.000  C
  C1259    1.0000 0.74515  0.15240  0.56682  Biso   1.000  C
  C1260    1.0000 0.74404  0.18469  0.56680  Biso   1.000  C
  C1261    1.0000 0.77517  0.18584  0.56694  Biso   1.000  C
  C1262    1.0000 0.77403  0.21815  0.56666  Biso   1.000  C
  C1263    1.0000 0.80521  0.21923  0.56663  Biso   1.000  C
  C1264    1.0000 0.80409  0.25152  0.56630  Biso   1.000  C
  C1265    1.0000 0.83524  0.25266  0.56647  Biso   1.000  C
  C1266    1.0000 0.83418  0.28493  0.56625  Biso   1.000  C
  C1267    1.0000 0.86534  0.28603  0.56644  Biso   1.000  C
  C1268    1.0000 0.86436  0.31825  0.56614  Biso   1.000  C
  C1269    1.0000 0.89554  0.31935  0.56609  Biso   1.000  C
  C1270    1.0000 0.89458  0.35157  0.56580  Biso   1.000  C
  C1271    1.0000 0.92576  0.35273  0.56570  Biso   1.000  C
  C1272    1.0000 0.92484  0.38491  0.56538  Biso   1.000  C
  C1273    1.0000 0.95610  0.38593  0.56520  Biso   1.000  C
  C1274    1.0000 0.95524  0.41809  0.56505  Biso   1.000  C
  C1275    1.0000 0.98646  0.41916  0.56492  Biso   1.000  C
  C1276    1.0000 0.98561  0.45132  0.56498  Biso   1.000  C
  C1277    1.0000 0.68713  0.02141  0.56550  Biso   1.000  C
  C1278    1.0000 0.71838  0.02233  0.56582  Biso   1.000  C
  C1279    1.0000 0.71728  0.05459  0.56585  Biso   1.000  C
  C1280    1.0000 0.74848  0.05561  0.56630  Biso   1.000  C
  C1281    1.0000 0.74734  0.08789  0.56647  Biso   1.000  C
  C1282    1.0000 0.77856  0.08890  0.56687  Biso   1.000  C
  C1283    1.0000 0.77741  0.12120  0.56701  Biso   1.000  C
  C1284    1.0000 0.80855  0.12234  0.56722  Biso   1.000  C
  C1285    1.0000 0.80741  0.15465  0.56716  Biso   1.000  C
  C1286    1.0000 0.83856  0.15575  0.56728  Biso   1.000  C
  C1287    1.0000 0.83746  0.18802  0.56700  Biso   1.000  C
  C1288    1.0000 0.86861  0.18912  0.56714  Biso   1.000  C
  C1289    1.0000 0.86747  0.22144  0.56687  Biso   1.000  C
  C1290    1.0000 0.89860  0.22259  0.56701  Biso   1.000  C
  C1291    1.0000 0.89755  0.25485  0.56682  Biso   1.000  C
  C1292    1.0000 0.92873  0.25596  0.56680  Biso   1.000  C
  C1293    1.0000 0.92774  0.28819  0.56641  Biso   1.000  C
  C1294    1.0000 0.95890  0.28938  0.56620  Biso   1.000  C
  C1295    1.0000 0.95797  0.32158  0.56580  Biso   1.000  C
  C1296    1.0000 0.98919  0.32262  0.56551  Biso   1.000  C
  C1297    1.0000 0.98832  0.35477  0.56520  Biso   1.000  C
  C1298    1.0000 0.78077  0.02443  0.56663  Biso   1.000  C
  C1299    1.0000 0.81198  0.02548  0.56700  Biso   1.000  C
  C1300    1.0000 0.81088  0.05773  0.56714  Biso   1.000  C
  C1301    1.0000 0.84204  0.05882  0.56751  Biso   1.000  C
  C1302    1.0000 0.84083  0.09116  0.56754  Biso   1.000  C
  C1303    1.0000 0.87196  0.09228  0.56779  Biso   1.000  C
  C1304    1.0000 0.87082  0.12457  0.56765  Biso   1.000  C
  C1305    1.0000 0.90197  0.12567  0.56779  Biso   1.000  C
  C1306    1.0000 0.90086  0.15796  0.56751  Biso   1.000  C
  C1307    1.0000 0.93199  0.15917  0.56754  Biso   1.000  C
  C1308    1.0000 0.93089  0.19145  0.56722  Biso   1.000  C
  C1309    1.0000 0.96206  0.19259  0.56716  Biso   1.000  C
  C1310    1.0000 0.96101  0.22483  0.56694  Biso   1.000  C
  C1311    1.0000 0.99218  0.22597  0.56666  Biso   1.000  C
  C1312    1.0000 0.99114  0.25822  0.56626  Biso   1.000  C
  C1313    1.0000 0.87433  0.02765  0.56779  Biso   1.000  C
  C1314    1.0000 0.90545  0.02882  0.56812  Biso   1.000  C
  C1315    1.0000 0.90426  0.06114  0.56806  Biso   1.000  C
  C1316    1.0000 0.93542  0.06227  0.56827  Biso   1.000  C
  C1317    1.0000 0.93427  0.09455  0.56812  Biso   1.000  C
  C1318    1.0000 0.96540  0.09574  0.56806  Biso   1.000  C
  C1319    1.0000 0.96425  0.12804  0.56779  Biso   1.000  C
  C1320    1.0000 0.99539  0.12918  0.56765  Biso   1.000  C
  C1321    1.0000 0.99431  0.16144  0.56728  Biso   1.000  C
  C1322    1.0000 0.96772  0.03114  0.56839  Biso   1.000  C
  C1323    1.0000 0.99886  0.03228  0.56839  Biso   1.000  C
  C1324    1.0000 0.99769  0.06458  0.56827  Biso   1.000  C
