data_T1-O3-saifen\(2)
_audit_creation_date              2021-11-23
_audit_creation_method            'Materials Studio'
_symmetry_space_group_name_H-M    'P1'
_symmetry_Int_Tables_number       1
_symmetry_cell_setting            triclinic
loop_
_symmetry_equiv_pos_as_xyz
  x,y,z
_cell_length_a                    20.3820
_cell_length_b                    40.3304
_cell_length_c                    13.5742
_cell_angle_alpha                 90
_cell_angle_beta                  90
_cell_angle_gamma                 90
loop_
_atom_site_label
_atom_site_type_symbol
_atom_site_fract_x
_atom_site_fract_y
_atom_site_fract_z
_atom_site_U_iso_or_equiv
_atom_site_adp_type
_atom_site_occupancy
Si1    Si    0.42564   0.42037   0.14084   0.01267  Uiso   1.00
Si2    Si    0.30910   0.40674   0.28944   0.01267  Uiso   1.00
Si3    Si    0.27955   0.42512   0.50582   0.01267  Uiso   1.00
Si4    Si    0.12153   0.42535   0.51230   0.01267  Uiso   1.00
Si5    Si    0.06740   0.40695   0.30105   0.01267  Uiso   1.00
Si6    Si    0.18184   0.42076   0.15712   0.01267  Uiso   1.00
Si7    Si    0.42126   0.30589   0.16108   0.01267  Uiso   1.00
Si8    Si    0.30760   0.32737   0.30540   0.01267  Uiso   1.00
Si9    Si    0.26904   0.30645   0.51879   0.01267  Uiso   1.00
Si10   Si    0.11526   0.30591   0.51235   0.01267  Uiso   1.00
Si11   Si    0.06515   0.32777   0.30065   0.01267  Uiso   1.00
Si12   Si    0.18505   0.30558   0.17431   0.01267  Uiso   1.00
Si13   Si    0.07588   0.36430   0.65227   0.01267  Uiso   1.00
Si14   Si    0.18728   0.37859   0.80202   0.01267  Uiso   1.00
Si15   Si    0.21764   0.36045   0.02172   0.01267  Uiso   1.00
Si16   Si    0.37404   0.35962   0.01371   0.01267  Uiso   1.00
Si17   Si    0.41982   0.37850   0.80198   0.01267  Uiso   1.00
Si18   Si    0.30786   0.36540   0.65248   0.01267  Uiso   1.00
Si19   Si    0.07614   0.47826   0.66498   0.01267  Uiso   1.00
Si20   Si    0.19198   0.45746   0.80767   0.01267  Uiso   1.00
Si21   Si    0.23063   0.47889   0.02264   0.01267  Uiso   1.00
Si22   Si    0.38357   0.47928   0.01091   0.01267  Uiso   1.00
Si23   Si    0.42777   0.45663   0.80085   0.01267  Uiso   1.00
Si24   Si    0.31254   0.47741   0.66697   0.01267  Uiso   1.00
Si25   Si    0.57531   0.16958   0.83805   0.01267  Uiso   1.00
Si26   Si    0.69216   0.15615   0.69205   0.01267  Uiso   1.00
Si27   Si    0.71914   0.17365   0.47144   0.01267  Uiso   1.00
Si28   Si    0.87711   0.17472   0.47189   0.01267  Uiso   1.00
Si29   Si    0.92807   0.15670   0.68341   0.01267  Uiso   1.00
Si30   Si    0.81627   0.17034   0.83097   0.01267  Uiso   1.00
Si31   Si    0.57811   0.05363   0.81863   0.01267  Uiso   1.00
Si32   Si    0.69299   0.07676   0.67712   0.01267  Uiso   1.00
Si33   Si    0.73113   0.05700   0.46094   0.01267  Uiso   1.00
Si34   Si    0.88439   0.05590   0.47038   0.01267  Uiso   1.00
Si35   Si    0.93303   0.07775   0.68197   0.01267  Uiso   1.00
Si36   Si    0.81488   0.05612   0.81201   0.01267  Uiso   1.00
Si37   Si    0.92396   0.11450   0.33554   0.01267  Uiso   1.00
Si38   Si    0.80745   0.12887   0.18643   0.01267  Uiso   1.00
Si39   Si    0.77950   0.11005   0.96922   0.01267  Uiso   1.00
Si40   Si    0.62122   0.10767   0.96912   0.01267  Uiso   1.00
Si41   Si    0.57120   0.12681   0.18110   0.01267  Uiso   1.00
Si42   Si    0.68431   0.11514   0.32774   0.01267  Uiso   1.00
Si43   Si    0.92211   0.22824   0.32106   0.01267  Uiso   1.00
Si44   Si    0.80658   0.20755   0.17676   0.01267  Uiso   1.00
Si45   Si    0.77033   0.22886   0.96220   0.01267  Uiso   1.00
Si46   Si    0.61765   0.22703   0.97560   0.01267  Uiso   1.00
Si47   Si    0.56792   0.20557   0.18506   0.01267  Uiso   1.00
Si48   Si    0.68497   0.22681   0.31560   0.01267  Uiso   1.00
Si49   Si    0.69563   0.37843   0.68044   0.01267  Uiso   1.00
Si50   Si    0.71900   0.35940   0.46318   0.01267  Uiso   1.00
Si51   Si    0.87557   0.35969   0.46575   0.01267  Uiso   1.00
Si52   Si    0.92349   0.37802   0.67744   0.01267  Uiso   1.00
Si53   Si    0.81580   0.36514   0.82806   0.01267  Uiso   1.00
Si54   Si    0.57499   0.47525   0.81974   0.01267  Uiso   1.00
Si55   Si    0.69418   0.45669   0.67508   0.01267  Uiso   1.00
Si56   Si    0.73011   0.47989   0.46381   0.01267  Uiso   1.00
Si57   Si    0.88350   0.47953   0.46871   0.01267  Uiso   1.00
Si58   Si    0.93064   0.45676   0.67966   0.01267  Uiso   1.00
Si59   Si    0.81483   0.47776   0.81515   0.01267  Uiso   1.00
Si60   Si    0.92194   0.42092   0.33516   0.01267  Uiso   1.00
Si61   Si    0.80315   0.40644   0.19142   0.01267  Uiso   1.00
Si62   Si    0.78042   0.42423   0.96993   0.01267  Uiso   1.00
Si63   Si    0.62225   0.42303   0.97469   0.01267  Uiso   1.00
Si64   Si    0.57299   0.40759   0.18571   0.01267  Uiso   1.00
Si65   Si    0.68089   0.42086   0.33410   0.01267  Uiso   1.00
Si66   Si    0.92170   0.30592   0.31730   0.01267  Uiso   1.00
Si67   Si    0.80433   0.32697   0.17614   0.01267  Uiso   1.00
Si68   Si    0.76890   0.30664   0.95888   0.01267  Uiso   1.00
Si69   Si    0.61651   0.30385   0.96878   0.01267  Uiso   1.00
Si70   Si    0.56568   0.32870   0.17895   0.01267  Uiso   1.00
Si71   Si    0.68191   0.30522   0.30817   0.01267  Uiso   1.00
Si72   Si    0.42401   0.11329   0.14989   0.01267  Uiso   1.00
Si73   Si    0.30828   0.12798   0.29738   0.01267  Uiso   1.00
Si74   Si    0.28054   0.11063   0.51677   0.01267  Uiso   1.00
Si75   Si    0.12241   0.10967   0.51552   0.01267  Uiso   1.00
Si76   Si    0.07185   0.12755   0.30398   0.01267  Uiso   1.00
Si77   Si    0.18450   0.11444   0.15807   0.01267  Uiso   1.00
Si78   Si    0.42304   0.22836   0.16339   0.01267  Uiso   1.00
Si79   Si    0.30768   0.20689   0.30662   0.01267  Uiso   1.00
Si80   Si    0.27026   0.22877   0.52164   0.01267  Uiso   1.00
Si81   Si    0.11632   0.22935   0.51368   0.01267  Uiso   1.00
Si82   Si    0.06777   0.20633   0.30348   0.01267  Uiso   1.00
Si83   Si    0.18527   0.22713   0.17205   0.01267  Uiso   1.00
Si84   Si    0.07574   0.17080   0.64870   0.01267  Uiso   1.00
Si85   Si    0.19229   0.15615   0.79548   0.01267  Uiso   1.00
Si86   Si    0.21942   0.17376   0.01582   0.01267  Uiso   1.00
Si87   Si    0.37778   0.17425   0.01471   0.01267  Uiso   1.00
Si88   Si    0.42837   0.15633   0.80100   0.01267  Uiso   1.00
Si89   Si    0.31605   0.17066   0.65542   0.01267  Uiso   1.00
Si90   Si    0.07777   0.05582   0.66691   0.01267  Uiso   1.00
Si91   Si    0.19314   0.07678   0.80938   0.01267  Uiso   1.00
Si92   Si    0.23093   0.05631   0.02540   0.01267  Uiso   1.00
Si93   Si    0.38424   0.05543   0.01437   0.01267  Uiso   1.00
Si94   Si    0.43312   0.07680   0.80106   0.01267  Uiso   1.00
Si95   Si    0.31411   0.05588   0.67292   0.01267  Uiso   1.00
Al96   Al    0.57335   0.36642   0.82841   0.01267  Uiso   1.00
O97    O     0.36742   0.42203   0.22221   0.01267  Uiso   1.00
O98    O     0.31090   0.42514   0.39579   0.01267  Uiso   1.00
O99    O     0.20022   0.42419   0.49834   0.01267  Uiso   1.00
O100   O     0.08659   0.42386   0.40554   0.01267  Uiso   1.00
O101   O     0.11127   0.42234   0.21237   0.01267  Uiso   1.00
O102   O     0.23848   0.41337   0.23820   0.01267  Uiso   1.00
O103   O     0.36583   0.30858   0.24635   0.01267  Uiso   1.00
O104   O     0.30986   0.31395   0.41821   0.01267  Uiso   1.00
O105   O     0.19238   0.31598   0.50052   0.01267  Uiso   1.00
O106   O     0.07931   0.31040   0.40665   0.01267  Uiso   1.00
O107   O     0.11111   0.31137   0.21582   0.01267  Uiso   1.00
O108   O     0.23671   0.31869   0.25711   0.01267  Uiso   1.00
O109   O     0.32005   0.36704   0.30298   0.01267  Uiso   1.00
O110   O     0.07999   0.36719   0.30824   0.01267  Uiso   1.00
O111   O     0.42771   0.45493   0.07906   0.01267  Uiso   1.00
O112   O     0.41487   0.38948   0.06550   0.01267  Uiso   1.00
O113   O     0.39720   0.32421   0.06055   0.01267  Uiso   1.00
O114   O     0.19324   0.45636   0.10403   0.01267  Uiso   1.00
O115   O     0.18053   0.39127   0.07524   0.01267  Uiso   1.00
O116   O     0.19523   0.32545   0.07122   0.01267  Uiso   1.00
O117   O     0.99089   0.41507   0.27749   0.01267  Uiso   1.00
O118   O     0.98889   0.32129   0.27065   0.01267  Uiso   1.00
O119   O     0.12192   0.36361   0.74998   0.01267  Uiso   1.00
O120   O     0.19791   0.35945   0.90608   0.01267  Uiso   1.00
O121   O     0.29636   0.36527   0.03572   0.01267  Uiso   1.00
O122   O     0.38809   0.35877   0.89658   0.01267  Uiso   1.00
O123   O     0.37860   0.36748   0.70475   0.01267  Uiso   1.00
O124   O     0.25024   0.37283   0.73164   0.01267  Uiso   1.00
O125   O     0.13113   0.47456   0.75043   0.01267  Uiso   1.00
O126   O     0.19701   0.47472   0.91507   0.01267  Uiso   1.00
O127   O     0.30720   0.46729   0.01719   0.01267  Uiso   1.00
O128   O     0.40831   0.47846   0.89739   0.01267  Uiso   1.00
O129   O     0.38652   0.47057   0.70678   0.01267  Uiso   1.00
O130   O     0.25994   0.46315   0.74705   0.01267  Uiso   1.00
O131   O     0.17843   0.41808   0.82127   0.01267  Uiso   1.00
O132   O     0.40907   0.41819   0.82187   0.01267  Uiso   1.00
O133   O     0.08092   0.32913   0.59464   0.01267  Uiso   1.00
O134   O     0.09862   0.39411   0.57940   0.01267  Uiso   1.00
O135   O     0.10013   0.45988   0.56460   0.01267  Uiso   1.00
O136   O     0.29897   0.32815   0.60840   0.01267  Uiso   1.00
O137   O     0.30462   0.39212   0.56307   0.01267  Uiso   1.00
O138   O     0.30260   0.45873   0.56193   0.01267  Uiso   1.00
O139   O     0.49494   0.36932   0.78466   0.01267  Uiso   1.00
O140   O     0.50548   0.46118   0.77736   0.01267  Uiso   1.00
O141   O     0.63246   0.17232   0.75519   0.01267  Uiso   1.00
O142   O     0.69433   0.17409   0.58499   0.01267  Uiso   1.00
O143   O     0.79831   0.16942   0.46499   0.01267  Uiso   1.00
O144   O     0.90020   0.17555   0.58600   0.01267  Uiso   1.00
O145   O     0.88829   0.16917   0.78022   0.01267  Uiso   1.00
O146   O     0.76127   0.16300   0.74740   0.01267  Uiso   1.00
O147   O     0.63420   0.05790   0.73458   0.01267  Uiso   1.00
O148   O     0.69287   0.06406   0.56388   0.01267  Uiso   1.00
O149   O     0.80785   0.06762   0.47442   0.01267  Uiso   1.00
O150   O     0.91597   0.05878   0.57969   0.01267  Uiso   1.00
O151   O     0.88895   0.06273   0.77143   0.01267  Uiso   1.00
O152   O     0.76337   0.06846   0.72783   0.01267  Uiso   1.00
O153   O     0.68038   0.11656   0.68061   0.01267  Uiso   1.00
O154   O     0.91803   0.11705   0.66849   0.01267  Uiso   1.00
O155   O     0.57478   0.20333   0.90429   0.01267  Uiso   1.00
O156   O     0.58596   0.13786   0.90994   0.01267  Uiso   1.00
O157   O     0.60060   0.07253   0.91950   0.01267  Uiso   1.00
O158   O     0.80677   0.20709   0.87817   0.01267  Uiso   1.00
O159   O     0.81157   0.14268   0.91777   0.01267  Uiso   1.00
O160   O     0.80348   0.07650   0.91393   0.01267  Uiso   1.00
O161   O     0.00476   0.16585   0.70094   0.01267  Uiso   1.00
O162   O     0.01009   0.07220   0.70856   0.01267  Uiso   1.00
O163   O     0.86767   0.11427   0.25112   0.01267  Uiso   1.00
O164   O     0.80375   0.10861   0.08314   0.01267  Uiso   1.00
O165   O     0.70002   0.11297   0.96338   0.01267  Uiso   1.00
O166   O     0.59685   0.10765   0.08290   0.01267  Uiso   1.00
O167   O     0.61243   0.11459   0.27655   0.01267  Uiso   1.00
O168   O     0.73866   0.12458   0.24498   0.01267  Uiso   1.00
O169   O     0.86638   0.22433   0.23680   0.01267  Uiso   1.00
O170   O     0.80544   0.22463   0.06857   0.01267  Uiso   1.00
O171   O     0.69435   0.21614   0.97116   0.01267  Uiso   1.00
O172   O     0.59051   0.22622   0.08761   0.01267  Uiso   1.00
O173   O     0.61081   0.21827   0.27861   0.01267  Uiso   1.00
O174   O     0.73693   0.21395   0.23258   0.01267  Uiso   1.00
O175   O     0.81914   0.16806   0.16490   0.01267  Uiso   1.00
O176   O     0.58089   0.16652   0.16437   0.01267  Uiso   1.00
O177   O     0.92401   0.07928   0.39341   0.01267  Uiso   1.00
O178   O     0.91257   0.14434   0.41435   0.01267  Uiso   1.00
O179   O     0.89842   0.20975   0.42176   0.01267  Uiso   1.00
O180   O     0.69859   0.07872   0.37320   0.01267  Uiso   1.00
O181   O     0.68467   0.14267   0.41521   0.01267  Uiso   1.00
O182   O     0.69811   0.20858   0.42054   0.01267  Uiso   1.00
O183   O     0.49463   0.11844   0.20279   0.01267  Uiso   1.00
O184   O     0.49069   0.21246   0.20695   0.01267  Uiso   1.00
O185   O     0.63301   0.36592   0.73982   0.01267  Uiso   1.00
O186   O     0.70359   0.35655   0.57961   0.01267  Uiso   1.00
O187   O     0.79758   0.36222   0.44306   0.01267  Uiso   1.00
O188   O     0.89051   0.35937   0.58308   0.01267  Uiso   1.00
O189   O     0.88846   0.36531   0.77821   0.01267  Uiso   1.00
O190   O     0.76282   0.37412   0.74405   0.01267  Uiso   1.00
O191   O     0.63042   0.46896   0.73609   0.01267  Uiso   1.00
O192   O     0.69620   0.47705   0.57174   0.01267  Uiso   1.00
O193   O     0.80671   0.46814   0.46965   0.01267  Uiso   1.00
O194   O     0.91326   0.47674   0.57913   0.01267  Uiso   1.00
O195   O     0.88800   0.47157   0.77063   0.01267  Uiso   1.00
O196   O     0.76075   0.46446   0.73682   0.01267  Uiso   1.00
O197   O     0.69013   0.41753   0.65000   0.01267  Uiso   1.00
O198   O     0.91370   0.41779   0.66379   0.01267  Uiso   1.00
O199   O     0.57426   0.32261   0.87735   0.01267  Uiso   1.00
O200   O     0.59006   0.38980   0.93127   0.01267  Uiso   1.00
O201   O     0.59401   0.45652   0.92158   0.01267  Uiso   1.00
O202   O     0.80284   0.32808   0.87225   0.01267  Uiso   1.00
O203   O     0.81328   0.39187   0.91763   0.01267  Uiso   1.00
O204   O     0.80766   0.45817   0.91927   0.01267  Uiso   1.00
O205   O     0.00071   0.36937   0.68666   0.01267  Uiso   1.00
O206   O     0.00807   0.46176   0.70469   0.01267  Uiso   1.00
O207   O     0.86331   0.42160   0.25493   0.01267  Uiso   1.00
O208   O     0.80191   0.42470   0.08509   0.01267  Uiso   1.00
O209   O     0.70153   0.42238   0.95894   0.01267  Uiso   1.00
O210   O     0.60562   0.42625   0.09188   0.01267  Uiso   1.00
O211   O     0.60811   0.42076   0.28565   0.01267  Uiso   1.00
O212   O     0.73454   0.41318   0.24843   0.01267  Uiso   1.00
O213   O     0.86363   0.30932   0.23592   0.01267  Uiso   1.00
O214   O     0.80488   0.31336   0.06350   0.01267  Uiso   1.00
O215   O     0.69112   0.31732   0.96717   0.01267  Uiso   1.00
O216   O     0.58158   0.31197   0.07184   0.01267  Uiso   1.00
O217   O     0.60808   0.31019   0.26436   0.01267  Uiso   1.00
O218   O     0.73390   0.31736   0.22477   0.01267  Uiso   1.00
O219   O     0.81394   0.36678   0.17727   0.01267  Uiso   1.00
O220   O     0.58415   0.36761   0.17572   0.01267  Uiso   1.00
O221   O     0.92428   0.45620   0.39295   0.01267  Uiso   1.00
O222   O     0.91221   0.39130   0.41564   0.01267  Uiso   1.00
O223   O     0.90313   0.32534   0.41862   0.01267  Uiso   1.00
O224   O     0.69285   0.45700   0.38338   0.01267  Uiso   1.00
O225   O     0.68391   0.39221   0.41826   0.01267  Uiso   1.00
O226   O     0.69056   0.32618   0.40941   0.01267  Uiso   1.00
O227   O     0.49531   0.41566   0.19634   0.01267  Uiso   1.00
O228   O     0.48834   0.32304   0.20225   0.01267  Uiso   1.00
O229   O     0.36724   0.11174   0.23347   0.01267  Uiso   1.00
O230   O     0.30548   0.10928   0.40326   0.01267  Uiso   1.00
O231   O     0.20127   0.11459   0.52154   0.01267  Uiso   1.00
O232   O     0.09817   0.10843   0.40188   0.01267  Uiso   1.00
O233   O     0.11222   0.11480   0.20818   0.01267  Uiso   1.00
O234   O     0.23862   0.12316   0.24180   0.01267  Uiso   1.00
O235   O     0.36618   0.22522   0.24656   0.01267  Uiso   1.00
O236   O     0.30661   0.22201   0.41715   0.01267  Uiso   1.00
O237   O     0.19325   0.21816   0.51359   0.01267  Uiso   1.00
O238   O     0.08734   0.22633   0.40290   0.01267  Uiso   1.00
O239   O     0.11097   0.22032   0.21151   0.01267  Uiso   1.00
O240   O     0.23716   0.21347   0.25393   0.01267  Uiso   1.00
O241   O     0.32216   0.16738   0.31150   0.01267  Uiso   1.00
O242   O     0.08262   0.16717   0.31977   0.01267  Uiso   1.00
O243   O     0.42553   0.07851   0.08993   0.01267  Uiso   1.00
O244   O     0.41181   0.14367   0.07320   0.01267  Uiso   1.00
O245   O     0.40132   0.20920   0.06295   0.01267  Uiso   1.00
O246   O     0.19733   0.07782   0.11275   0.01267  Uiso   1.00
O247   O     0.18679   0.14191   0.07038   0.01267  Uiso   1.00
O248   O     0.19616   0.20810   0.06776   0.01267  Uiso   1.00
O249   O     0.99504   0.11941   0.28368   0.01267  Uiso   1.00
O250   O     0.99030   0.21217   0.28024   0.01267  Uiso   1.00
O251   O     0.13195   0.17182   0.73319   0.01267  Uiso   1.00
O252   O     0.19527   0.17434   0.90203   0.01267  Uiso   1.00
O253   O     0.29879   0.17058   0.02266   0.01267  Uiso   1.00
O254   O     0.40053   0.17391   0.90042   0.01267  Uiso   1.00
O255   O     0.38800   0.17015   0.70653   0.01267  Uiso   1.00
O256   O     0.26111   0.16270   0.73865   0.01267  Uiso   1.00
O257   O     0.13374   0.05856   0.75150   0.01267  Uiso   1.00
O258   O     0.19347   0.06323   0.92178   0.01267  Uiso   1.00
O259   O     0.30768   0.06723   0.01418   0.01267  Uiso   1.00
O260   O     0.41374   0.05888   0.90402   0.01267  Uiso   1.00
O261   O     0.38872   0.06180   0.71202   0.01267  Uiso   1.00
O262   O     0.26332   0.06856   0.75769   0.01267  Uiso   1.00
O263   O     0.18100   0.11657   0.80857   0.01267  Uiso   1.00
O264   O     0.42010   0.11642   0.81074   0.01267  Uiso   1.00
O265   O     0.07566   0.20580   0.58900   0.01267  Uiso   1.00
O266   O     0.08754   0.14056   0.57156   0.01267  Uiso   1.00
O267   O     0.10160   0.07492   0.56735   0.01267  Uiso   1.00
O268   O     0.30488   0.20731   0.60841   0.01267  Uiso   1.00
O269   O     0.31354   0.14281   0.56908   0.01267  Uiso   1.00
O270   O     0.30277   0.07660   0.57143   0.01267  Uiso   1.00
O271   O     0.50481   0.16627   0.78386   0.01267  Uiso   1.00
O272   O     0.51002   0.06963   0.77700   0.01267  Uiso   1.00
O273   O     0.43451   0.26711   0.13574   0.01267  Uiso   1.00
O274   O     0.19664   0.26643   0.15318   0.01267  Uiso   1.00
O275   O     0.27714   0.26773   0.54976   0.01267  Uiso   1.00
O276   O     0.10871   0.26764   0.54894   0.01267  Uiso   1.00
O277   O     0.06561   0.01719   0.63946   0.01267  Uiso   1.00
O278   O     0.30166   0.01692   0.64992   0.01267  Uiso   1.00
O279   O     0.22503   0.01749   0.05568   0.01267  Uiso   1.00
O280   O     0.39065   0.01716   0.05060   0.01267  Uiso   1.00
O281   O     0.56861   0.01466   0.84330   0.01267  Uiso   1.00
O282   O     0.80438   0.01710   0.83564   0.01267  Uiso   1.00
O283   O     0.72511   0.01837   0.42888   0.01267  Uiso   1.00
O284   O     0.89027   0.01783   0.43261   0.01267  Uiso   1.00
O285   O     0.93221   0.26721   0.34550   0.01267  Uiso   1.00
O286   O     0.69318   0.26633   0.33336   0.01267  Uiso   1.00
O287   O     0.77326   0.26762   0.92973   0.01267  Uiso   1.00
O288   O     0.61044   0.26529   0.93765   0.01267  Uiso   1.00
H289   H     0.55303   0.30668   0.83022   0.01267  Uiso   1.00
Si290  Si    0.42564   0.92037   0.14084   0.01267  Uiso   1.00
Si291  Si    0.30910   0.90674   0.28944   0.01267  Uiso   1.00
Si292  Si    0.27955   0.92512   0.50582   0.01267  Uiso   1.00
Si293  Si    0.12153   0.92535   0.51230   0.01267  Uiso   1.00
Si294  Si    0.06740   0.90695   0.30105   0.01267  Uiso   1.00
Si295  Si    0.18184   0.92076   0.15712   0.01267  Uiso   1.00
Si296  Si    0.42126   0.80589   0.16108   0.01267  Uiso   1.00
Si297  Si    0.30760   0.82737   0.30540   0.01267  Uiso   1.00
Si298  Si    0.26904   0.80645   0.51879   0.01267  Uiso   1.00
Si299  Si    0.11526   0.80591   0.51235   0.01267  Uiso   1.00
Si300  Si    0.06515   0.82777   0.30065   0.01267  Uiso   1.00
Si301  Si    0.18505   0.80558   0.17431   0.01267  Uiso   1.00
Si302  Si    0.07588   0.86430   0.65227   0.01267  Uiso   1.00
Si303  Si    0.18728   0.87859   0.80202   0.01267  Uiso   1.00
Si304  Si    0.21764   0.86045   0.02172   0.01267  Uiso   1.00
Si305  Si    0.37404   0.85962   0.01371   0.01267  Uiso   1.00
Si306  Si    0.41982   0.87850   0.80198   0.01267  Uiso   1.00
Si307  Si    0.30786   0.86540   0.65248   0.01267  Uiso   1.00
Si308  Si    0.07614   0.97826   0.66498   0.01267  Uiso   1.00
Si309  Si    0.19198   0.95746   0.80767   0.01267  Uiso   1.00
Si310  Si    0.23063   0.97889   0.02264   0.01267  Uiso   1.00
Si311  Si    0.38357   0.97928   0.01091   0.01267  Uiso   1.00
Si312  Si    0.42777   0.95663   0.80085   0.01267  Uiso   1.00
Si313  Si    0.31254   0.97741   0.66697   0.01267  Uiso   1.00
Si314  Si    0.57531   0.66958   0.83805   0.01267  Uiso   1.00
Si315  Si    0.69216   0.65615   0.69205   0.01267  Uiso   1.00
Si316  Si    0.71914   0.67365   0.47144   0.01267  Uiso   1.00
Si317  Si    0.87711   0.67472   0.47189   0.01267  Uiso   1.00
Si318  Si    0.92807   0.65670   0.68341   0.01267  Uiso   1.00
Si319  Si    0.81627   0.67034   0.83097   0.01267  Uiso   1.00
Si320  Si    0.57811   0.55363   0.81863   0.01267  Uiso   1.00
Si321  Si    0.69299   0.57676   0.67712   0.01267  Uiso   1.00
Si322  Si    0.73113   0.55700   0.46094   0.01267  Uiso   1.00
Si323  Si    0.88439   0.55590   0.47038   0.01267  Uiso   1.00
Si324  Si    0.93303   0.57775   0.68197   0.01267  Uiso   1.00
Si325  Si    0.81488   0.55612   0.81201   0.01267  Uiso   1.00
Si326  Si    0.92396   0.61450   0.33554   0.01267  Uiso   1.00
Si327  Si    0.80745   0.62887   0.18643   0.01267  Uiso   1.00
Si328  Si    0.77950   0.61005   0.96922   0.01267  Uiso   1.00
Si329  Si    0.62122   0.60767   0.96912   0.01267  Uiso   1.00
Si330  Si    0.57120   0.62681   0.18110   0.01267  Uiso   1.00
Si331  Si    0.68431   0.61514   0.32774   0.01267  Uiso   1.00
Si332  Si    0.92211   0.72824   0.32106   0.01267  Uiso   1.00
Si333  Si    0.80658   0.70755   0.17676   0.01267  Uiso   1.00
Si334  Si    0.77033   0.72886   0.96220   0.01267  Uiso   1.00
Si335  Si    0.61765   0.72703   0.97560   0.01267  Uiso   1.00
Si336  Si    0.56792   0.70557   0.18506   0.01267  Uiso   1.00
Si337  Si    0.68497   0.72681   0.31560   0.01267  Uiso   1.00
Si338  Si    0.69563   0.87843   0.68044   0.01267  Uiso   1.00
Si339  Si    0.71900   0.85940   0.46318   0.01267  Uiso   1.00
Si340  Si    0.87557   0.85969   0.46575   0.01267  Uiso   1.00
Si341  Si    0.92349   0.87802   0.67744   0.01267  Uiso   1.00
Si342  Si    0.81580   0.86514   0.82806   0.01267  Uiso   1.00
Si343  Si    0.57499   0.97525   0.81974   0.01267  Uiso   1.00
Si344  Si    0.69418   0.95669   0.67508   0.01267  Uiso   1.00
Si345  Si    0.73011   0.97989   0.46381   0.01267  Uiso   1.00
Si346  Si    0.88350   0.97953   0.46871   0.01267  Uiso   1.00
Si347  Si    0.93064   0.95676   0.67966   0.01267  Uiso   1.00
Si348  Si    0.81483   0.97776   0.81515   0.01267  Uiso   1.00
Si349  Si    0.92194   0.92092   0.33516   0.01267  Uiso   1.00
Si350  Si    0.80315   0.90644   0.19142   0.01267  Uiso   1.00
Si351  Si    0.78042   0.92423   0.96993   0.01267  Uiso   1.00
Si352  Si    0.62225   0.92303   0.97469   0.01267  Uiso   1.00
Si353  Si    0.57299   0.90759   0.18571   0.01267  Uiso   1.00
Si354  Si    0.68089   0.92086   0.33410   0.01267  Uiso   1.00
Si355  Si    0.92170   0.80592   0.31730   0.01267  Uiso   1.00
Si356  Si    0.80433   0.82697   0.17614   0.01267  Uiso   1.00
Si357  Si    0.76890   0.80664   0.95888   0.01267  Uiso   1.00
Si358  Si    0.61651   0.80385   0.96878   0.01267  Uiso   1.00
Si359  Si    0.56568   0.82870   0.17895   0.01267  Uiso   1.00
Si360  Si    0.68191   0.80522   0.30817   0.01267  Uiso   1.00
Si361  Si    0.42401   0.61329   0.14989   0.01267  Uiso   1.00
Si362  Si    0.30828   0.62798   0.29738   0.01267  Uiso   1.00
Si363  Si    0.28054   0.61063   0.51677   0.01267  Uiso   1.00
Si364  Si    0.12241   0.60967   0.51552   0.01267  Uiso   1.00
Si365  Si    0.07185   0.62755   0.30398   0.01267  Uiso   1.00
Si366  Si    0.18450   0.61444   0.15807   0.01267  Uiso   1.00
Si367  Si    0.42304   0.72836   0.16339   0.01267  Uiso   1.00
Si368  Si    0.30768   0.70689   0.30662   0.01267  Uiso   1.00
Si369  Si    0.27026   0.72877   0.52164   0.01267  Uiso   1.00
Si370  Si    0.11632   0.72935   0.51368   0.01267  Uiso   1.00
Si371  Si    0.06777   0.70633   0.30348   0.01267  Uiso   1.00
Si372  Si    0.18527   0.72713   0.17205   0.01267  Uiso   1.00
Si373  Si    0.07574   0.67080   0.64870   0.01267  Uiso   1.00
Si374  Si    0.19229   0.65615   0.79548   0.01267  Uiso   1.00
Si375  Si    0.21942   0.67376   0.01582   0.01267  Uiso   1.00
Si376  Si    0.37778   0.67425   0.01471   0.01267  Uiso   1.00
Si377  Si    0.42837   0.65633   0.80100   0.01267  Uiso   1.00
Si378  Si    0.31605   0.67066   0.65542   0.01267  Uiso   1.00
Si379  Si    0.07777   0.55582   0.66691   0.01267  Uiso   1.00
Si380  Si    0.19314   0.57678   0.80938   0.01267  Uiso   1.00
Si381  Si    0.23093   0.55631   0.02540   0.01267  Uiso   1.00
Si382  Si    0.38424   0.55543   0.01437   0.01267  Uiso   1.00
Si383  Si    0.43312   0.57680   0.80106   0.01267  Uiso   1.00
Si384  Si    0.31411   0.55588   0.67292   0.01267  Uiso   1.00
Al385  Al    0.57335   0.86642   0.82841   0.01267  Uiso   1.00
O386   O     0.36742   0.92203   0.22221   0.01267  Uiso   1.00
O387   O     0.31090   0.92514   0.39579   0.01267  Uiso   1.00
O388   O     0.20022   0.92419   0.49834   0.01267  Uiso   1.00
O389   O     0.08659   0.92386   0.40554   0.01267  Uiso   1.00
O390   O     0.11127   0.92234   0.21237   0.01267  Uiso   1.00
O391   O     0.23848   0.91337   0.23820   0.01267  Uiso   1.00
O392   O     0.36583   0.80858   0.24635   0.01267  Uiso   1.00
O393   O     0.30986   0.81395   0.41821   0.01267  Uiso   1.00
O394   O     0.19238   0.81598   0.50052   0.01267  Uiso   1.00
O395   O     0.07931   0.81040   0.40665   0.01267  Uiso   1.00
O396   O     0.11111   0.81137   0.21582   0.01267  Uiso   1.00
O397   O     0.23671   0.81869   0.25711   0.01267  Uiso   1.00
O398   O     0.32005   0.86704   0.30298   0.01267  Uiso   1.00
O399   O     0.07999   0.86719   0.30824   0.01267  Uiso   1.00
O400   O     0.42771   0.95493   0.07906   0.01267  Uiso   1.00
O401   O     0.41487   0.88948   0.06550   0.01267  Uiso   1.00
O402   O     0.39720   0.82421   0.06055   0.01267  Uiso   1.00
O403   O     0.19324   0.95636   0.10403   0.01267  Uiso   1.00
O404   O     0.18053   0.89127   0.07524   0.01267  Uiso   1.00
O405   O     0.19523   0.82545   0.07122   0.01267  Uiso   1.00
O406   O     0.99089   0.91507   0.27749   0.01267  Uiso   1.00
O407   O     0.98889   0.82129   0.27065   0.01267  Uiso   1.00
O408   O     0.12192   0.86361   0.74998   0.01267  Uiso   1.00
O409   O     0.19791   0.85945   0.90608   0.01267  Uiso   1.00
O410   O     0.29636   0.86527   0.03572   0.01267  Uiso   1.00
O411   O     0.38809   0.85877   0.89658   0.01267  Uiso   1.00
O412   O     0.37860   0.86748   0.70475   0.01267  Uiso   1.00
O413   O     0.25024   0.87283   0.73164   0.01267  Uiso   1.00
O414   O     0.13113   0.97456   0.75043   0.01267  Uiso   1.00
O415   O     0.19701   0.97472   0.91507   0.01267  Uiso   1.00
O416   O     0.30720   0.96729   0.01719   0.01267  Uiso   1.00
O417   O     0.40831   0.97846   0.89739   0.01267  Uiso   1.00
O418   O     0.38652   0.97057   0.70678   0.01267  Uiso   1.00
O419   O     0.25994   0.96315   0.74705   0.01267  Uiso   1.00
O420   O     0.17843   0.91808   0.82126   0.01267  Uiso   1.00
O421   O     0.40907   0.91819   0.82187   0.01267  Uiso   1.00
O422   O     0.08092   0.82913   0.59464   0.01267  Uiso   1.00
O423   O     0.09862   0.89411   0.57940   0.01267  Uiso   1.00
O424   O     0.10013   0.95988   0.56460   0.01267  Uiso   1.00
O425   O     0.29897   0.82815   0.60840   0.01267  Uiso   1.00
O426   O     0.30462   0.89212   0.56307   0.01267  Uiso   1.00
O427   O     0.30260   0.95873   0.56193   0.01267  Uiso   1.00
O428   O     0.49494   0.86932   0.78466   0.01267  Uiso   1.00
O429   O     0.50548   0.96118   0.77735   0.01267  Uiso   1.00
O430   O     0.63246   0.67232   0.75519   0.01267  Uiso   1.00
O431   O     0.69433   0.67409   0.58499   0.01267  Uiso   1.00
O432   O     0.79831   0.66942   0.46499   0.01267  Uiso   1.00
O433   O     0.90020   0.67555   0.58600   0.01267  Uiso   1.00
O434   O     0.88829   0.66916   0.78022   0.01267  Uiso   1.00
O435   O     0.76127   0.66300   0.74740   0.01267  Uiso   1.00
O436   O     0.63420   0.55790   0.73458   0.01267  Uiso   1.00
O437   O     0.69287   0.56406   0.56388   0.01267  Uiso   1.00
O438   O     0.80785   0.56762   0.47442   0.01267  Uiso   1.00
O439   O     0.91597   0.55878   0.57969   0.01267  Uiso   1.00
O440   O     0.88895   0.56273   0.77143   0.01267  Uiso   1.00
O441   O     0.76337   0.56846   0.72783   0.01267  Uiso   1.00
O442   O     0.68038   0.61656   0.68061   0.01267  Uiso   1.00
O443   O     0.91803   0.61705   0.66849   0.01267  Uiso   1.00
O444   O     0.57478   0.70333   0.90429   0.01267  Uiso   1.00
O445   O     0.58596   0.63786   0.90994   0.01267  Uiso   1.00
O446   O     0.60060   0.57253   0.91950   0.01267  Uiso   1.00
O447   O     0.80677   0.70709   0.87817   0.01267  Uiso   1.00
O448   O     0.81157   0.64268   0.91777   0.01267  Uiso   1.00
O449   O     0.80348   0.57650   0.91393   0.01267  Uiso   1.00
O450   O     0.00476   0.66584   0.70094   0.01267  Uiso   1.00
O451   O     0.01009   0.57220   0.70856   0.01267  Uiso   1.00
O452   O     0.86767   0.61427   0.25112   0.01267  Uiso   1.00
O453   O     0.80375   0.60861   0.08314   0.01267  Uiso   1.00
O454   O     0.70002   0.61297   0.96338   0.01267  Uiso   1.00
O455   O     0.59685   0.60765   0.08290   0.01267  Uiso   1.00
O456   O     0.61243   0.61459   0.27655   0.01267  Uiso   1.00
O457   O     0.73866   0.62458   0.24498   0.01267  Uiso   1.00
O458   O     0.86638   0.72433   0.23680   0.01267  Uiso   1.00
O459   O     0.80544   0.72463   0.06857   0.01267  Uiso   1.00
O460   O     0.69435   0.71614   0.97116   0.01267  Uiso   1.00
O461   O     0.59051   0.72622   0.08761   0.01267  Uiso   1.00
O462   O     0.61081   0.71827   0.27861   0.01267  Uiso   1.00
O463   O     0.73693   0.71395   0.23258   0.01267  Uiso   1.00
O464   O     0.81914   0.66806   0.16490   0.01267  Uiso   1.00
O465   O     0.58089   0.66652   0.16437   0.01267  Uiso   1.00
O466   O     0.92401   0.57928   0.39341   0.01267  Uiso   1.00
O467   O     0.91257   0.64434   0.41435   0.01267  Uiso   1.00
O468   O     0.89842   0.70975   0.42176   0.01267  Uiso   1.00
O469   O     0.69859   0.57872   0.37320   0.01267  Uiso   1.00
O470   O     0.68467   0.64267   0.41521   0.01267  Uiso   1.00
O471   O     0.69811   0.70858   0.42054   0.01267  Uiso   1.00
O472   O     0.49463   0.61844   0.20279   0.01267  Uiso   1.00
O473   O     0.49069   0.71246   0.20695   0.01267  Uiso   1.00
O474   O     0.63301   0.86592   0.73982   0.01267  Uiso   1.00
O475   O     0.70359   0.85655   0.57961   0.01267  Uiso   1.00
O476   O     0.79758   0.86222   0.44306   0.01267  Uiso   1.00
O477   O     0.89051   0.85937   0.58308   0.01267  Uiso   1.00
O478   O     0.88846   0.86531   0.77821   0.01267  Uiso   1.00
O479   O     0.76282   0.87412   0.74405   0.01267  Uiso   1.00
O480   O     0.63042   0.96896   0.73609   0.01267  Uiso   1.00
O481   O     0.69620   0.97705   0.57174   0.01267  Uiso   1.00
O482   O     0.80671   0.96814   0.46965   0.01267  Uiso   1.00
O483   O     0.91326   0.97674   0.57913   0.01267  Uiso   1.00
O484   O     0.88800   0.97157   0.77063   0.01267  Uiso   1.00
O485   O     0.76075   0.96446   0.73682   0.01267  Uiso   1.00
O486   O     0.69013   0.91753   0.65000   0.01267  Uiso   1.00
O487   O     0.91370   0.91779   0.66379   0.01267  Uiso   1.00
O488   O     0.57426   0.82261   0.87735   0.01267  Uiso   1.00
O489   O     0.59006   0.88980   0.93127   0.01267  Uiso   1.00
O490   O     0.59401   0.95652   0.92158   0.01267  Uiso   1.00
O491   O     0.80284   0.82808   0.87225   0.01267  Uiso   1.00
O492   O     0.81328   0.89187   0.91763   0.01267  Uiso   1.00
O493   O     0.80766   0.95817   0.91927   0.01267  Uiso   1.00
O494   O     0.00071   0.86937   0.68666   0.01267  Uiso   1.00
O495   O     0.00807   0.96176   0.70469   0.01267  Uiso   1.00
O496   O     0.86331   0.92160   0.25493   0.01267  Uiso   1.00
O497   O     0.80191   0.92470   0.08509   0.01267  Uiso   1.00
O498   O     0.70153   0.92238   0.95894   0.01267  Uiso   1.00
O499   O     0.60562   0.92625   0.09188   0.01267  Uiso   1.00
O500   O     0.60811   0.92076   0.28565   0.01267  Uiso   1.00
O501   O     0.73454   0.91318   0.24843   0.01267  Uiso   1.00
O502   O     0.86363   0.80932   0.23592   0.01267  Uiso   1.00
O503   O     0.80488   0.81336   0.06350   0.01267  Uiso   1.00
O504   O     0.69112   0.81732   0.96717   0.01267  Uiso   1.00
O505   O     0.58158   0.81197   0.07184   0.01267  Uiso   1.00
O506   O     0.60808   0.81019   0.26436   0.01267  Uiso   1.00
O507   O     0.73390   0.81736   0.22477   0.01267  Uiso   1.00
O508   O     0.81394   0.86678   0.17727   0.01267  Uiso   1.00
O509   O     0.58415   0.86761   0.17572   0.01267  Uiso   1.00
O510   O     0.92428   0.95620   0.39295   0.01267  Uiso   1.00
O511   O     0.91221   0.89130   0.41564   0.01267  Uiso   1.00
O512   O     0.90313   0.82534   0.41862   0.01267  Uiso   1.00
O513   O     0.69285   0.95700   0.38338   0.01267  Uiso   1.00
O514   O     0.68391   0.89221   0.41826   0.01267  Uiso   1.00
O515   O     0.69056   0.82618   0.40941   0.01267  Uiso   1.00
O516   O     0.49531   0.91566   0.19635   0.01267  Uiso   1.00
O517   O     0.48834   0.82304   0.20225   0.01267  Uiso   1.00
O518   O     0.36724   0.61174   0.23347   0.01267  Uiso   1.00
O519   O     0.30548   0.60928   0.40326   0.01267  Uiso   1.00
O520   O     0.20127   0.61459   0.52154   0.01267  Uiso   1.00
O521   O     0.09817   0.60843   0.40188   0.01267  Uiso   1.00
O522   O     0.11222   0.61480   0.20818   0.01267  Uiso   1.00
O523   O     0.23862   0.62316   0.24180   0.01267  Uiso   1.00
O524   O     0.36618   0.72522   0.24656   0.01267  Uiso   1.00
O525   O     0.30661   0.72201   0.41715   0.01267  Uiso   1.00
O526   O     0.19325   0.71816   0.51359   0.01267  Uiso   1.00
O527   O     0.08734   0.72633   0.40290   0.01267  Uiso   1.00
O528   O     0.11097   0.72032   0.21151   0.01267  Uiso   1.00
O529   O     0.23716   0.71347   0.25393   0.01267  Uiso   1.00
O530   O     0.32216   0.66738   0.31150   0.01267  Uiso   1.00
O531   O     0.08262   0.66717   0.31977   0.01267  Uiso   1.00
O532   O     0.42553   0.57851   0.08993   0.01267  Uiso   1.00
O533   O     0.41181   0.64367   0.07320   0.01267  Uiso   1.00
O534   O     0.40132   0.70920   0.06295   0.01267  Uiso   1.00
O535   O     0.19733   0.57782   0.11275   0.01267  Uiso   1.00
O536   O     0.18679   0.64191   0.07038   0.01267  Uiso   1.00
O537   O     0.19616   0.70810   0.06776   0.01267  Uiso   1.00
O538   O     0.99504   0.61941   0.28368   0.01267  Uiso   1.00
O539   O     0.99030   0.71217   0.28024   0.01267  Uiso   1.00
O540   O     0.13195   0.67182   0.73319   0.01267  Uiso   1.00
O541   O     0.19527   0.67434   0.90203   0.01267  Uiso   1.00
O542   O     0.29879   0.67058   0.02266   0.01267  Uiso   1.00
O543   O     0.40053   0.67391   0.90042   0.01267  Uiso   1.00
O544   O     0.38800   0.67015   0.70653   0.01267  Uiso   1.00
O545   O     0.26111   0.66269   0.73865   0.01267  Uiso   1.00
O546   O     0.13374   0.55856   0.75150   0.01267  Uiso   1.00
O547   O     0.19347   0.56323   0.92178   0.01267  Uiso   1.00
O548   O     0.30768   0.56723   0.01418   0.01267  Uiso   1.00
O549   O     0.41374   0.55888   0.90402   0.01267  Uiso   1.00
O550   O     0.38872   0.56180   0.71202   0.01267  Uiso   1.00
O551   O     0.26332   0.56856   0.75769   0.01267  Uiso   1.00
O552   O     0.18100   0.61657   0.80857   0.01267  Uiso   1.00
O553   O     0.42010   0.61642   0.81074   0.01267  Uiso   1.00
O554   O     0.07566   0.70580   0.58900   0.01267  Uiso   1.00
O555   O     0.08754   0.64056   0.57156   0.01267  Uiso   1.00
O556   O     0.10160   0.57492   0.56735   0.01267  Uiso   1.00
O557   O     0.30488   0.70731   0.60841   0.01267  Uiso   1.00
O558   O     0.31354   0.64281   0.56908   0.01267  Uiso   1.00
O559   O     0.30277   0.57660   0.57143   0.01267  Uiso   1.00
O560   O     0.50481   0.66627   0.78386   0.01267  Uiso   1.00
O561   O     0.51002   0.56963   0.77699   0.01267  Uiso   1.00
O562   O     0.43451   0.76711   0.13574   0.01267  Uiso   1.00
O563   O     0.19664   0.76643   0.15318   0.01267  Uiso   1.00
O564   O     0.27714   0.76773   0.54976   0.01267  Uiso   1.00
O565   O     0.10871   0.76764   0.54894   0.01267  Uiso   1.00
O566   O     0.06561   0.51719   0.63946   0.01267  Uiso   1.00
O567   O     0.30166   0.51692   0.64992   0.01267  Uiso   1.00
O568   O     0.22503   0.51749   0.05568   0.01267  Uiso   1.00
O569   O     0.39065   0.51716   0.05060   0.01267  Uiso   1.00
O570   O     0.56861   0.51466   0.84330   0.01267  Uiso   1.00
O571   O     0.80438   0.51710   0.83564   0.01267  Uiso   1.00
O572   O     0.72511   0.51837   0.42888   0.01267  Uiso   1.00
O573   O     0.89027   0.51783   0.43261   0.01267  Uiso   1.00
O574   O     0.93221   0.76721   0.34550   0.01267  Uiso   1.00
O575   O     0.69318   0.76633   0.33336   0.01267  Uiso   1.00
O576   O     0.77326   0.76762   0.92973   0.01267  Uiso   1.00
O577   O     0.61044   0.76529   0.93765   0.01267  Uiso   1.00
H578   H     0.55303   0.80668   0.83022   0.01267  Uiso   1.00
H579   H     0.55783   0.80854   0.48088   0.01267  Uiso   1.00
H580   H     0.62654   0.78537   0.63095   0.01267  Uiso   1.00
H581   H     0.43017   0.80299   0.51260   0.01267  Uiso   1.00
H582   H     0.40536   0.77614   0.68673   0.01267  Uiso   1.00
C583   C     0.46756   0.79513   0.56491   0.01267  Uiso   1.00
C584   C     0.45312   0.78135   0.65470   0.01267  Uiso   1.00
C585   C     0.53649   0.79800   0.54749   0.01267  Uiso   1.00
C586   C     0.57347   0.78611   0.62402   0.01267  Uiso   1.00
S587   S     0.52390   0.77083   0.71686   0.01267  Uiso   1.00
loop_
_geom_bond_atom_site_label_1
_geom_bond_atom_site_label_2
_geom_bond_distance
_geom_bond_site_symmetry_2
_ccdc_geom_bond_type
Si1    O97     1.622   .     S
Si1    O111    1.627   .     S
Si1    O112    1.628   .     S
Si1    O227    1.619   .     S
Si2    O97     1.619   .     S
Si2    O98     1.624   .     S
Si2    O102    1.621   .     S
Si2    O109    1.627   .     S
Si3    O98     1.624   .     S
Si3    O99     1.621   .     S
Si3    O137    1.623   .     S
Si3    O138    1.625   .     S
Si4    O99     1.616   .     S
Si4    O100    1.616   .     S
Si4    O134    1.622   .     S
Si4    O135    1.623   .     S
Si5    O100    1.623   .     S
Si5    O101    1.622   .     S
Si5    O110    1.627   .     S
Si5    O117    1.626   1_455 S
Si6    O101    1.623   .     S
Si6    O102    1.623   .     S
Si6    O114    1.622   .     S
Si6    O115    1.629   .     S
Si7    O103    1.620   .     S
Si7    O113    1.627   .     S
Si7    O228    1.631   .     S
Si7    O273    1.624   .     S
Si8    O103    1.620   .     S
Si8    O104    1.624   .     S
Si8    O108    1.625   .     S
Si8    O109    1.620   .     S
Si9    O104    1.626   .     S
Si9    O105    1.628   .     S
Si9    O136    1.619   .     S
Si9    O275    1.625   .     S
Si10   O105    1.631   .     S
Si10   O106    1.622   .     S
Si10   O133    1.617   .     S
Si10   O276    1.626   .     S
Si11   O106    1.626   .     S
Si11   O107    1.625   .     S
Si11   O110    1.621   .     S
Si11   O118    1.628   1_455 S
Si12   O107    1.625   .     S
Si12   O108    1.629   .     S
Si12   O116    1.625   .     S
Si12   O274    1.622   .     S
Si13   O119    1.626   .     S
Si13   O133    1.624   .     S
Si13   O134    1.623   .     S
Si13   O205    1.614   .     S
Si14   O119    1.625   .     S
Si14   O120    1.624   .     S
Si14   O124    1.616   .     S
Si14   O131    1.624   .     S
Si15   O115    1.627   .     S
Si15   O116    1.628   .     S
Si15   O120    1.621   1_554 S
Si15   O121    1.628   .     S
Si16   O112    1.625   .     S
Si16   O113    1.632   .     S
Si16   O121    1.627   .     S
Si16   O122    1.616   1_554 S
Si17   O122    1.642   .     S
Si17   O123    1.627   .     S
Si17   O132    1.638   .     S
Si17   O139    1.593   .     S
Si18   O123    1.610   .     S
Si18   O124    1.619   .     S
Si18   O136    1.628   .     S
Si18   O137    1.624   .     S
Si19   O125    1.621   .     S
Si19   O135    1.627   .     S
Si19   O206    1.629   .     S
Si19   O566    1.622   .     S
Si20   O125    1.618   .     S
Si20   O126    1.619   .     S
Si20   O130    1.627   .     S
Si20   O131    1.622   .     S
Si21   O114    1.620   .     S
Si21   O126    1.623   1_554 S
Si21   O127    1.631   .     S
Si21   O568    1.624   .     S
Si22   O111    1.622   .     S
Si22   O127    1.632   .     S
Si22   O128    1.621   1_554 S
Si22   O569    1.627   .     S
Si23   O128    1.628   .     S
Si23   O129    1.629   .     S
Si23   O132    1.622   .     S
Si23   O140    1.626   .     S
Si24   O129    1.626   .     S
Si24   O130    1.630   .     S
Si24   O138    1.626   .     S
Si24   O567    1.625   .     S
Si25   O141    1.622   .     S
Si25   O155    1.632   .     S
Si25   O156    1.623   .     S
Si25   O271    1.621   .     S
Si26   O141    1.625   .     S
Si26   O142    1.623   .     S
Si26   O146    1.621   .     S
Si26   O153    1.622   .     S
Si27   O142    1.622   .     S
Si27   O143    1.625   .     S
Si27   O181    1.625   .     S
Si27   O182    1.626   .     S
Si28   O143    1.623   .     S
Si28   O144    1.620   .     S
Si28   O178    1.623   .     S
Si28   O179    1.626   .     S
Si29   O144    1.627   .     S
Si29   O145    1.624   .     S
Si29   O154    1.625   .     S
Si29   O161    1.624   1_655 S
Si30   O145    1.622   .     S
Si30   O146    1.623   .     S
Si30   O158    1.627   .     S
Si30   O159    1.625   .     S
Si31   O147    1.623   .     S
Si31   O157    1.634   .     S
Si31   O272    1.632   .     S
Si31   O281    1.618   .     S
Si32   O147    1.618   .     S
Si32   O148    1.621   .     S
Si32   O152    1.627   .     S
Si32   O153    1.626   .     S
Si33   O148    1.625   .     S
Si33   O149    1.632   .     S
Si33   O180    1.620   .     S
Si33   O283    1.623   .     S
Si34   O149    1.631   .     S
Si34   O150    1.622   .     S
Si34   O177    1.621   .     S
Si34   O284    1.624   .     S
Si35   O150    1.624   .     S
Si35   O151    1.626   .     S
Si35   O154    1.624   .     S
Si35   O162    1.627   1_655 S
Si36   O151    1.628   .     S
Si36   O152    1.630   .     S
Si36   O160    1.627   .     S
Si36   O282    1.620   .     S
Si37   O163    1.622   .     S
Si37   O177    1.623   .     S
Si37   O178    1.627   .     S
Si37   O249    1.622   .     S
Si38   O163    1.620   .     S
Si38   O164    1.625   .     S
Si38   O168    1.620   .     S
Si38   O175    1.625   .     S
Si39   O159    1.626   .     S
Si39   O160    1.623   .     S
Si39   O164    1.625   1_556 S
Si39   O165    1.626   .     S
Si40   O156    1.626   .     S
Si40   O157    1.625   .     S
Si40   O165    1.622   .     S
Si40   O166    1.622   1_556 S
Si41   O166    1.627   .     S
Si41   O167    1.621   .     S
Si41   O176    1.629   .     S
Si41   O183    1.623   .     S
Si42   O167    1.622   .     S
Si42   O168    1.622   .     S
Si42   O180    1.619   .     S
Si42   O181    1.627   .     S
Si43   O169    1.620   .     S
Si43   O179    1.629   .     S
Si43   O250    1.631   .     S
Si43   O285    1.619   .     S
Si44   O169    1.616   .     S
Si44   O170    1.622   .     S
Si44   O174    1.629   .     S
Si44   O175    1.621   .     S
Si45   O158    1.620   .     S
Si45   O170    1.621   1_556 S
Si45   O171    1.636   .     S
Si45   O287    1.625   .     S
Si46   O155    1.618   .     S
Si46   O171    1.625   .     S
Si46   O172    1.618   1_556 S
Si46   O288    1.633   .     S
Si47   O172    1.628   .     S
Si47   O173    1.625   .     S
Si47   O176    1.622   .     S
Si47   O184    1.626   .     S
Si48   O173    1.630   .     S
Si48   O174    1.631   .     S
Si48   O182    1.625   .     S
Si48   O286    1.621   .     S
Si49   O185    1.591   .     S
Si49   O186    1.637   .     S
Si49   O190    1.629   .     S
Si49   O197    1.634   .     S
Si50   O186    1.615   .     S
Si50   O187    1.628   .     S
Si50   O225    1.623   .     S
Si50   O226    1.633   .     S
Si51   O187    1.623   .     S
Si51   O188    1.622   .     S
Si51   O222    1.625   .     S
Si51   O223    1.627   .     S
Si52   O188    1.631   .     S
Si52   O189    1.625   .     S
Si52   O198    1.627   .     S
Si52   O205    1.617   1_655 S
Si53   O189    1.628   .     S
Si53   O190    1.612   .     S
Si53   O202    1.631   .     S
Si53   O203    1.626   .     S
Si54   O140    1.631   .     S
Si54   O191    1.621   .     S
Si54   O201    1.622   .     S
Si54   O570    1.627   .     S
Si55   O191    1.618   .     S
Si55   O192    1.625   .     S
Si55   O196    1.626   .     S
Si55   O197    1.618   .     S
Si56   O192    1.623   .     S
Si56   O193    1.634   .     S
Si56   O224    1.620   .     S
Si56   O572    1.626   .     S
Si57   O193    1.631   .     S
Si57   O194    1.621   .     S
Si57   O221    1.623   .     S
Si57   O573    1.626   .     S
Si58   O194    1.624   .     S
Si58   O195    1.624   .     S
Si58   O198    1.624   .     S
Si58   O206    1.627   1_655 S
Si59   O195    1.628   .     S
Si59   O196    1.624   .     S
Si59   O204    1.625   .     S
Si59   O571    1.625   .     S
Si60   O117    1.625   .     S
Si60   O207    1.618   .     S
Si60   O221    1.626   .     S
Si60   O222    1.630   .     S
Si61   O207    1.620   .     S
Si61   O208    1.620   .     S
Si61   O212    1.621   .     S
Si61   O219    1.626   .     S
Si62   O203    1.630   .     S
Si62   O204    1.628   .     S
Si62   O208    1.624   1_556 S
Si62   O209    1.617   .     S
Si63   O200    1.605   .     S
Si63   O201    1.635   .     S
Si63   O209    1.630   .     S
Si63   O210    1.631   1_556 S
Si64   O210    1.621   .     S
Si64   O211    1.624   .     S
Si64   O220    1.634   .     S
Si64   O227    1.623   .     S
Si65   O211    1.623   .     S
Si65   O212    1.626   .     S
Si65   O224    1.623   .     S
Si65   O225    1.625   .     S
Si66   O118    1.630   .     S
Si66   O213    1.625   .     S
Si66   O223    1.627   .     S
Si66   O285    1.622   .     S
Si67   O213    1.621   .     S
Si67   O214    1.625   .     S
Si67   O218    1.626   .     S
Si67   O219    1.618   .     S
Si68   O202    1.614   .     S
Si68   O214    1.622   1_556 S
Si68   O215    1.647   .     S
Si68   O287    1.625   .     S
Si69   O199    1.690   .     S
Si69   O215    1.615   .     S
Si69   O216    1.603   1_556 S
Si69   O288    1.616   .     S
Si70   O216    1.636   .     S
Si70   O217    1.628   .     S
Si70   O220    1.614   .     S
Si70   O228    1.623   .     S
Si71   O217    1.631   .     S
Si71   O218    1.625   .     S
Si71   O226    1.624   .     S
Si71   O286    1.621   .     S
Si72   O183    1.623   .     S
Si72   O229    1.621   .     S
Si72   O243    1.623   .     S
Si72   O244    1.626   .     S
Si73   O229    1.620   .     S
Si73   O230    1.624   .     S
Si73   O234    1.620   .     S
Si73   O241    1.625   .     S
Si74   O230    1.623   .     S
Si74   O231    1.625   .     S
Si74   O269    1.626   .     S
Si74   O270    1.624   .     S
Si75   O231    1.622   .     S
Si75   O232    1.621   .     S
Si75   O266    1.624   .     S
Si75   O267    1.624   .     S
Si76   O232    1.627   .     S
Si76   O233    1.622   .     S
Si76   O242    1.628   .     S
Si76   O249    1.623   1_455 S
Si77   O233    1.622   .     S
Si77   O234    1.623   .     S
Si77   O246    1.622   .     S
Si77   O247    1.626   .     S
Si78   O184    1.632   .     S
Si78   O235    1.622   .     S
Si78   O245    1.629   .     S
Si78   O273    1.624   .     S
Si79   O235    1.622   .     S
Si79   O236    1.620   .     S
Si79   O240    1.628   .     S
Si79   O241    1.622   .     S
Si80   O236    1.623   .     S
Si80   O237    1.631   .     S
Si80   O268    1.623   .     S
Si80   O275    1.624   .     S
Si81   O237    1.632   .     S
Si81   O238    1.621   .     S
Si81   O265    1.622   .     S
Si81   O276    1.625   .     S
Si82   O238    1.623   .     S
Si82   O239    1.628   .     S
Si82   O242    1.623   .     S
Si82   O250    1.628   1_455 S
Si83   O239    1.629   .     S
Si83   O240    1.631   .     S
Si83   O248    1.626   .     S
Si83   O274    1.622   .     S
Si84   O161    1.623   .     S
Si84   O251    1.622   .     S
Si84   O265    1.627   .     S
Si84   O266    1.626   .     S
Si85   O251    1.621   .     S
Si85   O252    1.624   .     S
Si85   O256    1.621   .     S
Si85   O263    1.622   .     S
Si86   O247    1.624   .     S
Si86   O248    1.625   .     S
Si86   O252    1.622   1_554 S
Si86   O253    1.626   .     S
Si87   O244    1.622   .     S
Si87   O245    1.627   .     S
Si87   O253    1.620   .     S
Si87   O254    1.619   1_554 S
Si88   O254    1.627   .     S
Si88   O255    1.623   .     S
Si88   O264    1.624   .     S
Si88   O271    1.625   .     S
Si89   O255    1.623   .     S
Si89   O256    1.622   .     S
Si89   O268    1.626   .     S
Si89   O269    1.625   .     S
Si90   O162    1.630   .     S
Si90   O257    1.623   .     S
Si90   O267    1.629   .     S
Si90   O277    1.621   .     S
Si91   O257    1.620   .     S
Si91   O258    1.620   .     S
Si91   O262    1.627   .     S
Si91   O263    1.624   .     S
Si92   O246    1.621   .     S
Si92   O258    1.625   1_554 S
Si92   O259    1.632   .     S
Si92   O279    1.623   .     S
Si93   O243    1.622   .     S
Si93   O259    1.632   .     S
Si93   O260    1.619   1_554 S
Si93   O280    1.625   .     S
Si94   O260    1.621   .     S
Si94   O261    1.628   .     S
Si94   O264    1.625   .     S
Si94   O272    1.627   .     S
Si95   O261    1.629   .     S
Si95   O262    1.630   .     S
Si95   O270    1.627   .     S
Si95   O278    1.622   .     S
Al96   O139    1.709   .     S
Al96   O185    1.709   .     S
Al96   O199    1.887   .     S
Al96   O200    1.720   .     S
O117   Si5     1.626   1_655 S
O118   Si11    1.628   1_655 S
O120   Si15    1.621   1_556 S
O122   Si16    1.616   1_556 S
O126   Si21    1.623   1_556 S
O128   Si22    1.621   1_556 S
O161   Si29    1.624   1_455 S
O162   Si35    1.627   1_455 S
O164   Si39    1.625   1_554 S
O166   Si40    1.622   1_554 S
O170   Si45    1.621   1_554 S
O172   Si46    1.618   1_554 S
O199   H289    1.005   .     S
O205   Si52    1.617   1_455 S
O206   Si58    1.627   1_455 S
O208   Si62    1.624   1_554 S
O210   Si63    1.631   1_554 S
O214   Si68    1.622   1_554 S
O216   Si69    1.603   1_554 S
O249   Si76    1.623   1_655 S
O250   Si82    1.628   1_655 S
O252   Si86    1.622   1_556 S
O254   Si87    1.619   1_556 S
O258   Si92    1.625   1_556 S
O260   Si93    1.619   1_556 S
O277   Si308   1.622   1_545 S
O278   Si313   1.625   1_545 S
O279   Si310   1.624   1_545 S
O280   Si311   1.627   1_545 S
O281   Si343   1.627   1_545 S
O282   Si348   1.625   1_545 S
O283   Si345   1.626   1_545 S
O284   Si346   1.626   1_545 S
Si290  O386    1.622   .     S
Si290  O400    1.627   .     S
Si290  O401    1.628   .     S
Si290  O516    1.619   .     S
Si291  O386    1.619   .     S
Si291  O387    1.624   .     S
Si291  O391    1.621   .     S
Si291  O398    1.627   .     S
Si292  O387    1.624   .     S
Si292  O388    1.621   .     S
Si292  O426    1.623   .     S
Si292  O427    1.625   .     S
Si293  O388    1.616   .     S
Si293  O389    1.616   .     S
Si293  O423    1.622   .     S
Si293  O424    1.623   .     S
Si294  O389    1.623   .     S
Si294  O390    1.622   .     S
Si294  O399    1.627   .     S
Si294  O406    1.626   1_455 S
Si295  O390    1.623   .     S
Si295  O391    1.623   .     S
Si295  O403    1.622   .     S
Si295  O404    1.629   .     S
Si296  O392    1.620   .     S
Si296  O402    1.627   .     S
Si296  O517    1.631   .     S
Si296  O562    1.624   .     S
Si297  O392    1.620   .     S
Si297  O393    1.624   .     S
Si297  O397    1.625   .     S
Si297  O398    1.620   .     S
Si298  O393    1.626   .     S
Si298  O394    1.628   .     S
Si298  O425    1.619   .     S
Si298  O564    1.625   .     S
Si299  O394    1.631   .     S
Si299  O395    1.622   .     S
Si299  O422    1.617   .     S
Si299  O565    1.626   .     S
Si300  O395    1.626   .     S
Si300  O396    1.625   .     S
Si300  O399    1.621   .     S
Si300  O407    1.628   1_455 S
Si301  O396    1.625   .     S
Si301  O397    1.629   .     S
Si301  O405    1.625   .     S
Si301  O563    1.622   .     S
Si302  O408    1.626   .     S
Si302  O422    1.624   .     S
Si302  O423    1.623   .     S
Si302  O494    1.614   .     S
Si303  O408    1.625   .     S
Si303  O409    1.624   .     S
Si303  O413    1.616   .     S
Si303  O420    1.624   .     S
Si304  O404    1.627   .     S
Si304  O405    1.628   .     S
Si304  O409    1.621   1_554 S
Si304  O410    1.628   .     S
Si305  O401    1.625   .     S
Si305  O402    1.632   .     S
Si305  O410    1.627   .     S
Si305  O411    1.616   1_554 S
Si306  O411    1.642   .     S
Si306  O412    1.627   .     S
Si306  O421    1.638   .     S
Si306  O428    1.593   .     S
Si307  O412    1.610   .     S
Si307  O413    1.619   .     S
Si307  O425    1.628   .     S
Si307  O426    1.624   .     S
Si308  O414    1.621   .     S
Si308  O424    1.627   .     S
Si308  O495    1.629   .     S
Si308  O277    1.622   1_565 S
Si309  O414    1.618   .     S
Si309  O415    1.619   .     S
Si309  O419    1.627   .     S
Si309  O420    1.622   .     S
Si310  O403    1.620   .     S
Si310  O415    1.623   1_554 S
Si310  O416    1.631   .     S
Si310  O279    1.624   1_565 S
Si311  O400    1.622   .     S
Si311  O416    1.632   .     S
Si311  O417    1.621   1_554 S
Si311  O280    1.627   1_565 S
Si312  O417    1.628   .     S
Si312  O418    1.629   .     S
Si312  O421    1.622   .     S
Si312  O429    1.626   .     S
Si313  O418    1.626   .     S
Si313  O419    1.630   .     S
Si313  O427    1.626   .     S
Si313  O278    1.625   1_565 S
Si314  O430    1.622   .     S
Si314  O444    1.632   .     S
Si314  O445    1.623   .     S
Si314  O560    1.621   .     S
Si315  O430    1.625   .     S
Si315  O431    1.623   .     S
Si315  O435    1.621   .     S
Si315  O442    1.622   .     S
Si316  O431    1.622   .     S
Si316  O432    1.625   .     S
Si316  O470    1.625   .     S
Si316  O471    1.626   .     S
Si317  O432    1.623   .     S
Si317  O433    1.620   .     S
Si317  O467    1.623   .     S
Si317  O468    1.626   .     S
Si318  O433    1.627   .     S
Si318  O434    1.624   .     S
Si318  O443    1.625   .     S
Si318  O450    1.624   1_655 S
Si319  O434    1.622   .     S
Si319  O435    1.623   .     S
Si319  O447    1.627   .     S
Si319  O448    1.625   .     S
Si320  O436    1.623   .     S
Si320  O446    1.634   .     S
Si320  O561    1.632   .     S
Si320  O570    1.618   .     S
Si321  O436    1.618   .     S
Si321  O437    1.621   .     S
Si321  O441    1.627   .     S
Si321  O442    1.626   .     S
Si322  O437    1.625   .     S
Si322  O438    1.632   .     S
Si322  O469    1.620   .     S
Si322  O572    1.623   .     S
Si323  O438    1.631   .     S
Si323  O439    1.622   .     S
Si323  O466    1.621   .     S
Si323  O573    1.624   .     S
Si324  O439    1.624   .     S
Si324  O440    1.626   .     S
Si324  O443    1.624   .     S
Si324  O451    1.627   1_655 S
Si325  O440    1.628   .     S
Si325  O441    1.630   .     S
Si325  O449    1.627   .     S
Si325  O571    1.620   .     S
Si326  O452    1.622   .     S
Si326  O466    1.623   .     S
Si326  O467    1.627   .     S
Si326  O538    1.622   .     S
Si327  O452    1.620   .     S
Si327  O453    1.625   .     S
Si327  O457    1.620   .     S
Si327  O464    1.625   .     S
Si328  O448    1.626   .     S
Si328  O449    1.623   .     S
Si328  O453    1.625   1_556 S
Si328  O454    1.626   .     S
Si329  O445    1.626   .     S
Si329  O446    1.625   .     S
Si329  O454    1.622   .     S
Si329  O455    1.622   1_556 S
Si330  O455    1.627   .     S
Si330  O456    1.621   .     S
Si330  O465    1.629   .     S
Si330  O472    1.623   .     S
Si331  O456    1.622   .     S
Si331  O457    1.622   .     S
Si331  O469    1.619   .     S
Si331  O470    1.627   .     S
Si332  O458    1.620   .     S
Si332  O468    1.629   .     S
Si332  O539    1.631   .     S
Si332  O574    1.619   .     S
Si333  O458    1.616   .     S
Si333  O459    1.622   .     S
Si333  O463    1.629   .     S
Si333  O464    1.621   .     S
Si334  O447    1.620   .     S
Si334  O459    1.621   1_556 S
Si334  O460    1.636   .     S
Si334  O576    1.625   .     S
Si335  O444    1.618   .     S
Si335  O460    1.625   .     S
Si335  O461    1.618   1_556 S
Si335  O577    1.633   .     S
Si336  O461    1.628   .     S
Si336  O462    1.625   .     S
Si336  O465    1.622   .     S
Si336  O473    1.626   .     S
Si337  O462    1.630   .     S
Si337  O463    1.631   .     S
Si337  O471    1.625   .     S
Si337  O575    1.621   .     S
Si338  O474    1.591   .     S
Si338  O475    1.637   .     S
Si338  O479    1.629   .     S
Si338  O486    1.634   .     S
Si339  O475    1.615   .     S
Si339  O476    1.628   .     S
Si339  O514    1.623   .     S
Si339  O515    1.633   .     S
Si340  O476    1.623   .     S
Si340  O477    1.622   .     S
Si340  O511    1.625   .     S
Si340  O512    1.627   .     S
Si341  O477    1.631   .     S
Si341  O478    1.625   .     S
Si341  O487    1.627   .     S
Si341  O494    1.617   1_655 S
Si342  O478    1.628   .     S
Si342  O479    1.612   .     S
Si342  O491    1.631   .     S
Si342  O492    1.626   .     S
Si343  O429    1.631   .     S
Si343  O480    1.621   .     S
Si343  O490    1.622   .     S
Si343  O281    1.627   1_565 S
Si344  O480    1.618   .     S
Si344  O481    1.625   .     S
Si344  O485    1.626   .     S
Si344  O486    1.618   .     S
Si345  O481    1.623   .     S
Si345  O482    1.634   .     S
Si345  O513    1.620   .     S
Si345  O283    1.626   1_565 S
Si346  O482    1.631   .     S
Si346  O483    1.621   .     S
Si346  O510    1.623   .     S
Si346  O284    1.626   1_565 S
Si347  O483    1.624   .     S
Si347  O484    1.624   .     S
Si347  O487    1.624   .     S
Si347  O495    1.627   1_655 S
Si348  O484    1.628   .     S
Si348  O485    1.624   .     S
Si348  O493    1.625   .     S
Si348  O282    1.625   1_565 S
Si349  O406    1.625   .     S
Si349  O496    1.618   .     S
Si349  O510    1.626   .     S
Si349  O511    1.630   .     S
Si350  O496    1.620   .     S
Si350  O497    1.620   .     S
Si350  O501    1.621   .     S
Si350  O508    1.626   .     S
Si351  O492    1.630   .     S
Si351  O493    1.628   .     S
Si351  O497    1.624   1_556 S
Si351  O498    1.617   .     S
Si352  O489    1.605   .     S
Si352  O490    1.635   .     S
Si352  O498    1.630   .     S
Si352  O499    1.631   1_556 S
Si353  O499    1.621   .     S
Si353  O500    1.624   .     S
Si353  O509    1.634   .     S
Si353  O516    1.623   .     S
Si354  O500    1.623   .     S
Si354  O501    1.626   .     S
Si354  O513    1.623   .     S
Si354  O514    1.625   .     S
Si355  O407    1.630   .     S
Si355  O502    1.625   .     S
Si355  O512    1.627   .     S
Si355  O574    1.622   .     S
Si356  O502    1.621   .     S
Si356  O503    1.625   .     S
Si356  O507    1.626   .     S
Si356  O508    1.618   .     S
Si357  O491    1.614   .     S
Si357  O503    1.622   1_556 S
Si357  O504    1.647   .     S
Si357  O576    1.625   .     S
Si358  O488    1.690   .     S
Si358  O504    1.615   .     S
Si358  O505    1.603   1_556 S
Si358  O577    1.616   .     S
Si359  O505    1.636   .     S
Si359  O506    1.628   .     S
Si359  O509    1.614   .     S
Si359  O517    1.623   .     S
Si360  O506    1.631   .     S
Si360  O507    1.625   .     S
Si360  O515    1.624   .     S
Si360  O575    1.621   .     S
Si361  O472    1.623   .     S
Si361  O518    1.621   .     S
Si361  O532    1.623   .     S
Si361  O533    1.626   .     S
Si362  O518    1.620   .     S
Si362  O519    1.624   .     S
Si362  O523    1.620   .     S
Si362  O530    1.625   .     S
Si363  O519    1.623   .     S
Si363  O520    1.625   .     S
Si363  O558    1.626   .     S
Si363  O559    1.624   .     S
Si364  O520    1.622   .     S
Si364  O521    1.621   .     S
Si364  O555    1.624   .     S
Si364  O556    1.624   .     S
Si365  O521    1.627   .     S
Si365  O522    1.622   .     S
Si365  O531    1.628   .     S
Si365  O538    1.623   1_455 S
Si366  O522    1.622   .     S
Si366  O523    1.623   .     S
Si366  O535    1.622   .     S
Si366  O536    1.626   .     S
Si367  O473    1.632   .     S
Si367  O524    1.622   .     S
Si367  O534    1.629   .     S
Si367  O562    1.624   .     S
Si368  O524    1.622   .     S
Si368  O525    1.620   .     S
Si368  O529    1.628   .     S
Si368  O530    1.622   .     S
Si369  O525    1.623   .     S
Si369  O526    1.631   .     S
Si369  O557    1.623   .     S
Si369  O564    1.624   .     S
Si370  O526    1.632   .     S
Si370  O527    1.621   .     S
Si370  O554    1.622   .     S
Si370  O565    1.625   .     S
Si371  O527    1.623   .     S
Si371  O528    1.628   .     S
Si371  O531    1.623   .     S
Si371  O539    1.628   1_455 S
Si372  O528    1.629   .     S
Si372  O529    1.631   .     S
Si372  O537    1.626   .     S
Si372  O563    1.622   .     S
Si373  O450    1.623   .     S
Si373  O540    1.622   .     S
Si373  O554    1.627   .     S
Si373  O555    1.626   .     S
Si374  O540    1.621   .     S
Si374  O541    1.624   .     S
Si374  O545    1.621   .     S
Si374  O552    1.622   .     S
Si375  O536    1.624   .     S
Si375  O537    1.625   .     S
Si375  O541    1.622   1_554 S
Si375  O542    1.626   .     S
Si376  O533    1.622   .     S
Si376  O534    1.627   .     S
Si376  O542    1.620   .     S
Si376  O543    1.619   1_554 S
Si377  O543    1.627   .     S
Si377  O544    1.623   .     S
Si377  O553    1.624   .     S
Si377  O560    1.625   .     S
Si378  O544    1.623   .     S
Si378  O545    1.622   .     S
Si378  O557    1.626   .     S
Si378  O558    1.625   .     S
Si379  O451    1.630   .     S
Si379  O546    1.623   .     S
Si379  O556    1.629   .     S
Si379  O566    1.621   .     S
Si380  O546    1.620   .     S
Si380  O547    1.620   .     S
Si380  O551    1.627   .     S
Si380  O552    1.624   .     S
Si381  O535    1.621   .     S
Si381  O547    1.625   1_554 S
Si381  O548    1.632   .     S
Si381  O568    1.623   .     S
Si382  O532    1.622   .     S
Si382  O548    1.632   .     S
Si382  O549    1.619   1_554 S
Si382  O569    1.625   .     S
Si383  O549    1.621   .     S
Si383  O550    1.628   .     S
Si383  O553    1.625   .     S
Si383  O561    1.627   .     S
Si384  O550    1.629   .     S
Si384  O551    1.630   .     S
Si384  O559    1.627   .     S
Si384  O567    1.622   .     S
Al385  O428    1.709   .     S
Al385  O474    1.709   .     S
Al385  O488    1.887   .     S
Al385  O489    1.720   .     S
O406   Si294   1.626   1_655 S
O407   Si300   1.628   1_655 S
O409   Si304   1.621   1_556 S
O411   Si305   1.616   1_556 S
O415   Si310   1.623   1_556 S
O417   Si311   1.621   1_556 S
O450   Si318   1.624   1_455 S
O451   Si324   1.627   1_455 S
O453   Si328   1.625   1_554 S
O455   Si329   1.622   1_554 S
O459   Si334   1.621   1_554 S
O461   Si335   1.618   1_554 S
O488   H578    1.005   .     S
O494   Si341   1.617   1_455 S
O495   Si347   1.627   1_455 S
O497   Si351   1.624   1_554 S
O499   Si352   1.631   1_554 S
O503   Si357   1.622   1_554 S
O505   Si358   1.603   1_554 S
O538   Si365   1.623   1_655 S
O539   Si371   1.628   1_655 S
O541   Si375   1.622   1_556 S
O543   Si376   1.619   1_556 S
O547   Si381   1.625   1_556 S
O549   Si382   1.619   1_556 S
H579   C585    1.089   .     S
H580   C586    1.086   .     S
H581   C583    1.089   .     S
H582   C584    1.086   .     S
C583   C584    1.371   .     D
C583   C585    1.429   .     S
C584   S587    1.725   .     S
C585   C586    1.370   .     D
C586   S587    1.728   .     S
