
#======================================================================
# CRYSTAL DATA
#----------------------------------------------------------------------
data_VESTA_phase_1

_chemical_name_common                  'ï¿½-1                                  '
_cell_length_a                         20.382000
_cell_length_b                         20.165199
_cell_length_c                         13.574200
_cell_angle_alpha                      90
_cell_angle_beta                       90
_cell_angle_gamma                      90
_cell_volume                           5579.086950
_space_group_name_H-M_alt              'P 1'
_space_group_IT_number                 1

loop_
_space_group_symop_operation_xyz
   'x, y, z'

loop_
   _atom_site_label
   _atom_site_occupancy
   _atom_site_fract_x
   _atom_site_fract_y
   _atom_site_fract_z
   _atom_site_adp_type
   _atom_site_B_iso_or_equiv
   _atom_site_type_symbol
   Si1         1.0     0.422257     0.843685     0.147435    Biso  1.000000 Si
   Si2         1.0     0.308461     0.815576     0.293588    Biso  1.000000 Si
   Si3         1.0     0.279287     0.842984     0.516018    Biso  1.000000 Si
   Si4         1.0     0.121607     0.849101     0.511749    Biso  1.000000 Si
   Si5         1.0     0.069329     0.813495     0.299764    Biso  1.000000 Si
   Si6         1.0     0.186429     0.847406     0.164911    Biso  1.000000 Si
   Si7         1.0     0.422378     0.611835     0.165495    Biso  1.000000 Si
   Si8         1.0     0.305899     0.658708     0.301329    Biso  1.000000 Si
   Si9         1.0     0.113869     0.613187     0.517660    Biso  1.000000 Si
   Si10        1.0     0.066438     0.655288     0.303532    Biso  1.000000 Si
   Si11        1.0     0.183770     0.610437     0.172928    Biso  1.000000 Si
   Si12        1.0     0.076898     0.727025     0.651910    Biso  1.000000 Si
   Si13        1.0     0.190154     0.754288     0.802435    Biso  1.000000 Si
   Si14        1.0     0.218864     0.722936     0.022835    Biso  1.000000 Si
   Si15        1.0     0.377034     0.718894     0.014288    Biso  1.000000 Si
   Si16        1.0     0.430238     0.758400     0.805607    Biso  1.000000 Si
   Si17        1.0     0.312642     0.724744     0.669530    Biso  1.000000 Si
   Si18        1.0     0.076213     0.956635     0.663152    Biso  1.000000 Si
   Si19        1.0     0.193557     0.914133     0.800548    Biso  1.000000 Si
   Si20        1.0     0.229930     0.956687     0.017538    Biso  1.000000 Si
   Si21        1.0     0.383120     0.959309     0.010834    Biso  1.000000 Si
   Si22        1.0     0.432984     0.915431     0.801832    Biso  1.000000 Si
   Si23        1.0     0.316397     0.954262     0.664200    Biso  1.000000 Si
   Si24        1.0     0.576290     0.341842     0.831561    Biso  1.000000 Si
   Si25        1.0     0.691746     0.313093     0.681823    Biso  1.000000 Si
   Si26        1.0     0.718626     0.348156     0.463971    Biso  1.000000 Si
   Si27        1.0     0.876447     0.349187     0.467233    Biso  1.000000 Si
   Si28        1.0     0.927259     0.313565     0.678752    Biso  1.000000 Si
   Si29        1.0     0.814269     0.340061     0.823199    Biso  1.000000 Si
   Si30        1.0     0.576653     0.113311     0.818707    Biso  1.000000 Si
   Si31        1.0     0.692090     0.155529     0.673753    Biso  1.000000 Si
   Si32        1.0     0.729616     0.111080     0.459695    Biso  1.000000 Si
   Si33        1.0     0.883049     0.110536     0.467353    Biso  1.000000 Si
   Si34        1.0     0.931230     0.155715     0.678429    Biso  1.000000 Si
   Si35        1.0     0.813531     0.114560     0.810140    Biso  1.000000 Si
   Si36        1.0     0.923477     0.227714     0.333385    Biso  1.000000 Si
   Si37        1.0     0.806150     0.256514     0.187118    Biso  1.000000 Si
   Si38        1.0     0.780011     0.221297     0.966970    Biso  1.000000 Si
   Si39        1.0     0.621570     0.220832     0.969105    Biso  1.000000 Si
   Si40        1.0     0.570457     0.256050     0.181707    Biso  1.000000 Si
   Si41        1.0     0.682227     0.227619     0.326542    Biso  1.000000 Si
   Si42        1.0     0.921940     0.457015     0.316932    Biso  1.000000 Si
   Si43        1.0     0.807505     0.415716     0.172089    Biso  1.000000 Si
   Si44        1.0     0.768513     0.456259     0.956970    Biso  1.000000 Si
   Si45        1.0     0.614801     0.457688     0.967543    Biso  1.000000 Si
   Si46        1.0     0.566973     0.413969     0.180685    Biso  1.000000 Si
   Si47        1.0     0.686108     0.458205     0.307679    Biso  1.000000 Si
   Si48        1.0     0.576006     0.726882     0.832709    Biso  1.000000 Si
   Si49        1.0     0.690839     0.756375     0.684349    Biso  1.000000 Si
   Si50        1.0     0.719505     0.723388     0.464993    Biso  1.000000 Si
   Si51        1.0     0.877795     0.720066     0.467438    Biso  1.000000 Si
   Si52        1.0     0.929302     0.756463     0.678937    Biso  1.000000 Si
   Si53        1.0     0.815336     0.727315     0.819962    Biso  1.000000 Si
   Si54        1.0     0.578868     0.958672     0.815132    Biso  1.000000 Si
   Si55        1.0     0.691618     0.915133     0.671120    Biso  1.000000 Si
   Si56        1.0     0.730437     0.955303     0.454893    Biso  1.000000 Si
   Si57        1.0     0.883861     0.957507     0.466010    Biso  1.000000 Si
   Si58        1.0     0.930727     0.913846     0.678998    Biso  1.000000 Si
   Si59        1.0     0.812462     0.957771     0.806518    Biso  1.000000 Si
   Si60        1.0     0.923126     0.841700     0.329884    Biso  1.000000 Si
   Si61        1.0     0.808289     0.813101     0.180624    Biso  1.000000 Si
   Si62        1.0     0.780895     0.847519     0.961836    Biso  1.000000 Si
   Si63        1.0     0.623004     0.848948     0.965965    Biso  1.000000 Si
   Si64        1.0     0.684863     0.841449     0.318121    Biso  1.000000 Si
   Si65        1.0     0.921365     0.612001     0.316411    Biso  1.000000 Si
   Si66        1.0     0.807759     0.654424     0.171722    Biso  1.000000 Si
   Si67        1.0     0.768542     0.612156     0.956809    Biso  1.000000 Si
   Si68        1.0     0.615071     0.610836     0.968108    Biso  1.000000 Si
   Si69        1.0     0.686482     0.614718     0.309194    Biso  1.000000 Si
   Si70        1.0     0.421953     0.225625     0.151119    Biso  1.000000 Si
   Si71        1.0     0.309915     0.252751     0.299274    Biso  1.000000 Si
   Si72        1.0     0.280369     0.225005     0.521586    Biso  1.000000 Si
   Si73        1.0     0.122683     0.219819     0.514428    Biso  1.000000 Si
   Si74        1.0     0.070262     0.254665     0.304185    Biso  1.000000 Si
   Si75        1.0     0.187381     0.223089     0.168165    Biso  1.000000 Si
   Si76        1.0     0.421356     0.457022     0.168400    Biso  1.000000 Si
   Si77        1.0     0.305875     0.410394     0.302717    Biso  1.000000 Si
   Si78        1.0     0.270567     0.454383     0.518962    Biso  1.000000 Si
   Si79        1.0     0.115981     0.459384     0.515211    Biso  1.000000 Si
   Si80        1.0     0.067828     0.412642     0.304198    Biso  1.000000 Si
   Si81        1.0     0.183951     0.455042     0.168935    Biso  1.000000 Si
   Si82        1.0     0.075598     0.342146     0.649193    Biso  1.000000 Si
   Si83        1.0     0.189616     0.312297     0.798752    Biso  1.000000 Si
   Si84        1.0     0.219130     0.344084     0.018697    Biso  1.000000 Si
   Si85        1.0     0.376507     0.349567     0.015671    Biso  1.000000 Si
   Si86        1.0     0.429794     0.314109     0.804721    Biso  1.000000 Si
   Si87        1.0     0.312672     0.345698     0.668751    Biso  1.000000 Si
   Si88        1.0     0.077307     0.111431     0.665635    Biso  1.000000 Si
   Si89        1.0     0.193028     0.152817     0.803230    Biso  1.000000 Si
   Si90        1.0     0.229883     0.114580     0.021524    Biso  1.000000 Si
   Si91        1.0     0.383014     0.111928     0.013225    Biso  1.000000 Si
   Si92        1.0     0.430652     0.155832     0.800642    Biso  1.000000 Si
   Si93        1.0     0.314399     0.110307     0.667330    Biso  1.000000 Si
   Si94        1.0     0.570349     0.814293     0.176993    Biso  1.000000 Si
   Si95        1.0     0.567452     0.656181     0.179476    Biso  1.000000 Si
   Al1         1.0     0.270165     0.616250     0.519829    Biso  1.000000 Al
   O1          1.0     0.368486     0.851646     0.234847    Biso  1.000000 O
   O2          1.0     0.315261     0.831565     0.410393    Biso  1.000000 O
   O3          1.0     0.200627     0.847157     0.500823    Biso  1.000000 O
   O4          1.0     0.088499     0.848434     0.403423    Biso  1.000000 O
   O5          1.0     0.112747     0.843655     0.209930    Biso  1.000000 O
   O6          1.0     0.238759     0.845238     0.255315    Biso  1.000000 O
   O7          1.0     0.367320     0.619224     0.250081    Biso  1.000000 O
   O8          1.0     0.310547     0.649098     0.417374    Biso  1.000000 O
   O9          1.0     0.188171     0.638499     0.519932    Biso  1.000000 O
   O10         1.0     0.081365     0.620074     0.407936    Biso  1.000000 O
   O11         1.0     0.110221     0.622413     0.216097    Biso  1.000000 O
   O12         1.0     0.237212     0.629862     0.256688    Biso  1.000000 O
   O13         1.0     0.312300     0.736813     0.269414    Biso  1.000000 O
   O14         1.0     0.081975     0.734281     0.308964    Biso  1.000000 O
   O15         1.0     0.425831     0.911648     0.082763    Biso  1.000000 O
   O16         1.0     0.404803     0.782138     0.074943    Biso  1.000000 O
   O17         1.0     0.401415     0.650201     0.065085    Biso  1.000000 O
   O18         1.0     0.193515     0.917184     0.105970    Biso  1.000000 O
   O19         1.0     0.198944     0.785916     0.090473    Biso  1.000000 O
   O20         1.0     0.194482     0.654427     0.073674    Biso  1.000000 O
   O21         1.0     0.992787     0.829712     0.274964    Biso  1.000000 O
   O22         1.0     0.989170     0.644488     0.276118    Biso  1.000000 O
   O23         1.0     0.131261     0.721246     0.739052    Biso  1.000000 O
   O24         1.0     0.183622     0.730145     0.916148    Biso  1.000000 O
   O25         1.0     0.297991     0.721757     0.008640    Biso  1.000000 O
   O26         1.0     0.407466     0.718471     0.903674    Biso  1.000000 O
   O27         1.0     0.387022     0.736475     0.711352    Biso  1.000000 O
   O28         1.0     0.261366     0.730730     0.761251    Biso  1.000000 O
   O29         1.0     0.131803     0.950146     0.747990    Biso  1.000000 O
   O30         1.0     0.194796     0.938798     0.913907    Biso  1.000000 O
   O31         1.0     0.306966     0.934481     0.012035    Biso  1.000000 O
   O32         1.0     0.411739     0.957116     0.899074    Biso  1.000000 O
   O33         1.0     0.389087     0.938020     0.708037    Biso  1.000000 O
   O34         1.0     0.262094     0.934663     0.747295    Biso  1.000000 O
   O35         1.0     0.184271     0.834518     0.794696    Biso  1.000000 O
   O36         1.0     0.422887     0.837206     0.826121    Biso  1.000000 O
   O37         1.0     0.069357     0.657159     0.594133    Biso  1.000000 O
   O38         1.0     0.096596     0.786093     0.575661    Biso  1.000000 O
   O39         1.0     0.099256     0.918029     0.564090    Biso  1.000000 O
   O40         1.0     0.313184     0.651613     0.621091    Biso  1.000000 O
   O41         1.0     0.296482     0.782012     0.589046    Biso  1.000000 O
   O42         1.0     0.305552     0.912347     0.563422    Biso  1.000000 O
   O43         1.0     0.505775     0.738218     0.778833    Biso  1.000000 O
   O44         1.0     0.509648     0.928934     0.775339    Biso  1.000000 O
   O45         1.0     0.632971     0.344167     0.747743    Biso  1.000000 O
   O46         1.0     0.693092     0.352762     0.577329    Biso  1.000000 O
   O47         1.0     0.797555     0.338520     0.460350    Biso  1.000000 O
   O48         1.0     0.899948     0.351594     0.581101    Biso  1.000000 O
   O49         1.0     0.886966     0.339268     0.774827    Biso  1.000000 O
   O50         1.0     0.761321     0.322734     0.737580    Biso  1.000000 O
   O51         1.0     0.632382     0.121983     0.734428    Biso  1.000000 O
   O52         1.0     0.693894     0.122041     0.565420    Biso  1.000000 O
   O53         1.0     0.806271     0.133598     0.467384    Biso  1.000000 O
   O54         1.0     0.911939     0.116238     0.578297    Biso  1.000000 O
   O55         1.0     0.887681     0.127009     0.769684    Biso  1.000000 O
   O56         1.0     0.761669     0.143057     0.729214    Biso  1.000000 O
   O57         1.0     0.679123     0.234692     0.663070    Biso  1.000000 O
   O58         1.0     0.916374     0.234237     0.663545    Biso  1.000000 O
   O59         1.0     0.574970     0.413058     0.888108    Biso  1.000000 O
   O60         1.0     0.589245     0.283631     0.911895    Biso  1.000000 O
   O61         1.0     0.597791     0.152027     0.918787    Biso  1.000000 O
   O62         1.0     0.800202     0.413527     0.867746    Biso  1.000000 O
   O63         1.0     0.810972     0.285439     0.911140    Biso  1.000000 O
   O64         1.0     0.803484     0.152854     0.914540    Biso  1.000000 O
   O65         1.0     0.003762     0.330493     0.698278    Biso  1.000000 O
   O66         1.0     0.008385     0.144094     0.702766    Biso  1.000000 O
   O67         1.0     0.866273     0.226021     0.250415    Biso  1.000000 O
   O68         1.0     0.805206     0.220477     0.080226    Biso  1.000000 O
   O69         1.0     0.700616     0.227322     0.962774    Biso  1.000000 O
   O70         1.0     0.597280     0.220090     0.082525    Biso  1.000000 O
   O71         1.0     0.610002     0.227663     0.276448    Biso  1.000000 O
   O72         1.0     0.736835     0.242713     0.242304    Biso  1.000000 O
   O73         1.0     0.868028     0.450459     0.229136    Biso  1.000000 O
   O74         1.0     0.807488     0.441813     0.059022    Biso  1.000000 O
   O75         1.0     0.691564     0.435251     0.970512    Biso  1.000000 O
   O76         1.0     0.583284     0.450325     0.076573    Biso  1.000000 O
   O77         1.0     0.611676     0.446235     0.267893    Biso  1.000000 O
   O78         1.0     0.737801     0.435874     0.222906    Biso  1.000000 O
   O79         1.0     0.816113     0.335908     0.174544    Biso  1.000000 O
   O80         1.0     0.582962     0.335512     0.171065    Biso  1.000000 O
   O81         1.0     0.924037     0.157599     0.392508    Biso  1.000000 O
   O82         1.0     0.912033     0.287909     0.411255    Biso  1.000000 O
   O83         1.0     0.895857     0.419099     0.415470    Biso  1.000000 O
   O84         1.0     0.693794     0.155222     0.375651    Biso  1.000000 O
   O85         1.0     0.684377     0.284850     0.411021    Biso  1.000000 O
   O86         1.0     0.697708     0.416829     0.409042    Biso  1.000000 O
   O87         1.0     0.493393     0.240400     0.199068    Biso  1.000000 O
   O88         1.0     0.490312     0.425636     0.208483    Biso  1.000000 O
   O89         1.0     0.632797     0.722343     0.749107    Biso  1.000000 O
   O90         1.0     0.688698     0.723065     0.575435    Biso  1.000000 O
   O91         1.0     0.798625     0.729547     0.469772    Biso  1.000000 O
   O92         1.0     0.906774     0.719023     0.578328    Biso  1.000000 O
   O93         1.0     0.887781     0.726401     0.771052    Biso  1.000000 O
   O94         1.0     0.761602     0.741804     0.734050    Biso  1.000000 O
   O95         1.0     0.632541     0.953723     0.726860    Biso  1.000000 O
   O96         1.0     0.691972     0.938179     0.556753    Biso  1.000000 O
   O97         1.0     0.807199     0.933985     0.466341    Biso  1.000000 O
   O98         1.0     0.913175     0.951437     0.576516    Biso  1.000000 O
   O99         1.0     0.886984     0.945120     0.768063    Biso  1.000000 O
   O100        1.0     0.761832     0.933051     0.721204    Biso  1.000000 O
   O101        1.0     0.678476     0.835763     0.678497    Biso  1.000000 O
   O102        1.0     0.914097     0.835437     0.667330    Biso  1.000000 O
   O103        1.0     0.573442     0.656450     0.891723    Biso  1.000000 O
   O104        1.0     0.588847     0.786694     0.909953    Biso  1.000000 O
   O105        1.0     0.603916     0.917921     0.911548    Biso  1.000000 O
   O106        1.0     0.801781     0.655186     0.869264    Biso  1.000000 O
   O107        1.0     0.812342     0.784846     0.903540    Biso  1.000000 O
   O108        1.0     0.799823     0.916992     0.908209    Biso  1.000000 O
   O109        1.0     0.006292     0.744592     0.701766    Biso  1.000000 O
   O110        1.0     0.007741     0.925258     0.704793    Biso  1.000000 O
   O111        1.0     0.865400     0.845671     0.247726    Biso  1.000000 O
   O112        1.0     0.809719     0.848597     0.073225    Biso  1.000000 O
   O113        1.0     0.701719     0.838413     0.964028    Biso  1.000000 O
   O114        1.0     0.596304     0.851867     0.078293    Biso  1.000000 O
   O115        1.0     0.611430     0.839962     0.272009    Biso  1.000000 O
   O116        1.0     0.736896     0.825299     0.230732    Biso  1.000000 O
   O117        1.0     0.866515     0.617580     0.229801    Biso  1.000000 O
   O118        1.0     0.805914     0.625873     0.060261    Biso  1.000000 O
   O119        1.0     0.691620     0.633929     0.967644    Biso  1.000000 O
   O120        1.0     0.585885     0.616701     0.078892    Biso  1.000000 O
   O121        1.0     0.611895     0.628209     0.270474    Biso  1.000000 O
   O122        1.0     0.737471     0.639007     0.224673    Biso  1.000000 O
   O123        1.0     0.820457     0.733782     0.170119    Biso  1.000000 O
   O124        1.0     0.580821     0.734669     0.163043    Biso  1.000000 O
   O125        1.0     0.925114     0.911330     0.390250    Biso  1.000000 O
   O126        1.0     0.909915     0.781250     0.406677    Biso  1.000000 O
   O127        1.0     0.895471     0.650102     0.414807    Biso  1.000000 O
   O128        1.0     0.697918     0.914413     0.364340    Biso  1.000000 O
   O129        1.0     0.689833     0.786039     0.404887    Biso  1.000000 O
   O130        1.0     0.697962     0.654251     0.412060    Biso  1.000000 O
   O131        1.0     0.493744     0.830894     0.196920    Biso  1.000000 O
   O132        1.0     0.491280     0.642247     0.208322    Biso  1.000000 O
   O133        1.0     0.368798     0.216077     0.239237    Biso  1.000000 O
   O134        1.0     0.315859     0.233683     0.415067    Biso  1.000000 O
   O135        1.0     0.201440     0.229785     0.508354    Biso  1.000000 O
   O136        1.0     0.092144     0.216366     0.404323    Biso  1.000000 O
   O137        1.0     0.113355     0.228578     0.211357    Biso  1.000000 O
   O138        1.0     0.238985     0.227402     0.259398    Biso  1.000000 O
   O139        1.0     0.367234     0.451582     0.255753    Biso  1.000000 O
   O140        1.0     0.303773     0.422429     0.419830    Biso  1.000000 O
   O141        1.0     0.192243     0.435828     0.516951    Biso  1.000000 O
   O142        1.0     0.087259     0.452041     0.403814    Biso  1.000000 O
   O143        1.0     0.110786     0.439967     0.211681    Biso  1.000000 O
   O144        1.0     0.237475     0.433825     0.252115    Biso  1.000000 O
   O145        1.0     0.317367     0.331985     0.280261    Biso  1.000000 O
   O146        1.0     0.081138     0.333823     0.319709    Biso  1.000000 O
   O147        1.0     0.426521     0.157807     0.086615    Biso  1.000000 O
   O148        1.0     0.401590     0.286561     0.079356    Biso  1.000000 O
   O149        1.0     0.396788     0.418242     0.070223    Biso  1.000000 O
   O150        1.0     0.194522     0.152032     0.112871    Biso  1.000000 O
   O151        1.0     0.200946     0.282763     0.090835    Biso  1.000000 O
   O152        1.0     0.195101     0.413435     0.067554    Biso  1.000000 O
   O153        1.0     0.993863     0.238066     0.279612    Biso  1.000000 O
   O154        1.0     0.990520     0.424705     0.279206    Biso  1.000000 O
   O155        1.0     0.129738     0.344894     0.736802    Biso  1.000000 O
   O156        1.0     0.182423     0.333697     0.913617    Biso  1.000000 O
   O157        1.0     0.297902     0.345807     0.001176    Biso  1.000000 O
   O158        1.0     0.412051     0.349550     0.908770    Biso  1.000000 O
   O159        1.0     0.385968     0.344703     0.716310    Biso  1.000000 O
   O160        1.0     0.259693     0.339133     0.758093    Biso  1.000000 O
   O161        1.0     0.129929     0.116025     0.755200    Biso  1.000000 O
   O162        1.0     0.193865     0.135890     0.919791    Biso  1.000000 O
   O163        1.0     0.306907     0.136742     0.016319    Biso  1.000000 O
   O164        1.0     0.410833     0.117440     0.901520    Biso  1.000000 O
   O165        1.0     0.387238     0.127694     0.709525    Biso  1.000000 O
   O166        1.0     0.260546     0.126183     0.752958    Biso  1.000000 O
   O167        1.0     0.186657     0.232154     0.786065    Biso  1.000000 O
   O168        1.0     0.417583     0.234711     0.814769    Biso  1.000000 O
   O169        1.0     0.074414     0.411839     0.589636    Biso  1.000000 O
   O170        1.0     0.090439     0.281545     0.573569    Biso  1.000000 O
   O171        1.0     0.105169     0.150361     0.569301    Biso  1.000000 O
   O172        1.0     0.303735     0.415518     0.612249    Biso  1.000000 O
   O173        1.0     0.305460     0.283354     0.594095    Biso  1.000000 O
   O174        1.0     0.300081     0.153352     0.568330    Biso  1.000000 O
   O175        1.0     0.506206     0.329792     0.778069    Biso  1.000000 O
   O176        1.0     0.507773     0.142542     0.776375    Biso  1.000000 O
   O177        1.0     0.432914     0.534120     0.138705    Biso  1.000000 O
   O178        1.0     0.191816     0.532995     0.142191    Biso  1.000000 O
   O179        1.0     0.284413     0.531680     0.527350    Biso  1.000000 O
   O180        1.0     0.106670     0.535442     0.550512    Biso  1.000000 O
   O181        1.0     0.065876     0.034373     0.635918    Biso  1.000000 O
   O182        1.0     0.310752     0.032515     0.637471    Biso  1.000000 O
   O183        1.0     0.223848     0.035418     0.039245    Biso  1.000000 O
   O184        1.0     0.388590     0.035323     0.049720    Biso  1.000000 O
   O185        1.0     0.569530     0.035509     0.846970    Biso  1.000000 O
   O186        1.0     0.801215     0.035998     0.828937    Biso  1.000000 O
   O187        1.0     0.723814     0.033580     0.429044    Biso  1.000000 O
   O188        1.0     0.889745     0.034243     0.430278    Biso  1.000000 O
   O189        1.0     0.931617     0.534549     0.344535    Biso  1.000000 O
   O190        1.0     0.695170     0.536354     0.333808    Biso  1.000000 O
   O191        1.0     0.774069     0.534239     0.928119    Biso  1.000000 O
   O192        1.0     0.608059     0.534410     0.931338    Biso  1.000000 O
   H1          1.0     0.388159     0.619523     0.612858    Biso  1.000000 H
   H2          1.0     0.533663     0.579415     0.401108    Biso  1.000000 H
   H3          1.0     0.419601     0.619195     0.448945    Biso  1.000000 H
   H4          1.0     0.454030     0.581914     0.744824    Biso  1.000000 H
   H5          1.0     0.568084     0.539052     0.710847    Biso  1.000000 H
   H6          1.0     0.608401     0.538367     0.535155    Biso  1.000000 H
   C1          1.0     0.559194     0.556040     0.552840    Biso  1.000000 C
   C2          1.0     0.517899     0.578619     0.477785    Biso  1.000000 C
   C3          1.0     0.455564     0.601040     0.502034    Biso  1.000000 C
   C4          1.0     0.474607     0.579510     0.670884    Biso  1.000000 C
   C5          1.0     0.537253     0.556308     0.650528    Biso  1.000000 C
   N1          1.0     0.435952     0.600946     0.596949    Biso  1.000000 N
