
#======================================================================
# CRYSTAL DATA
#----------------------------------------------------------------------
data_VESTA_phase_1

_chemical_name_common                  '-1\(2)                              '
_cell_length_a                         20.382000
_cell_length_b                         20.165199
_cell_length_c                         13.574200
_cell_angle_alpha                      90
_cell_angle_beta                       90
_cell_angle_gamma                      90
_cell_volume                           5579.086950
_space_group_name_H-M_alt              'P 1'
_space_group_IT_number                 1

loop_
_space_group_symop_operation_xyz
   'x, y, z'

loop_
   _atom_site_label
   _atom_site_occupancy
   _atom_site_fract_x
   _atom_site_fract_y
   _atom_site_fract_z
   _atom_site_adp_type
   _atom_site_B_iso_or_equiv
   _atom_site_type_symbol
   Si1         1.0     0.425098     0.841710     0.146523    Biso  1.000000 Si
   Si2         1.0     0.308564     0.812419     0.294462    Biso  1.000000 Si
   Si3         1.0     0.280313     0.847089     0.514123    Biso  1.000000 Si
   Si4         1.0     0.121646     0.850510     0.513601    Biso  1.000000 Si
   Si5         1.0     0.068368     0.814111     0.301459    Biso  1.000000 Si
   Si6         1.0     0.183151     0.842008     0.160709    Biso  1.000000 Si
   Si7         1.0     0.421173     0.612324     0.164449    Biso  1.000000 Si
   Si8         1.0     0.308858     0.653134     0.309635    Biso  1.000000 Si
   Si9         1.0     0.269242     0.614166     0.524536    Biso  1.000000 Si
   Si10        1.0     0.115568     0.612720     0.509537    Biso  1.000000 Si
   Si11        1.0     0.068695     0.655852     0.295856    Biso  1.000000 Si
   Si12        1.0     0.189238     0.610595     0.172752    Biso  1.000000 Si
   Si13        1.0     0.077538     0.727206     0.650462    Biso  1.000000 Si
   Si14        1.0     0.190666     0.754790     0.800727    Biso  1.000000 Si
   Si15        1.0     0.219697     0.722337     0.019795    Biso  1.000000 Si
   Si16        1.0     0.376526     0.721038     0.013765    Biso  1.000000 Si
   Si17        1.0     0.427490     0.755461     0.803499    Biso  1.000000 Si
   Si18        1.0     0.313514     0.728190     0.662179    Biso  1.000000 Si
   Si19        1.0     0.076853     0.957685     0.664463    Biso  1.000000 Si
   Si20        1.0     0.191933     0.913240     0.806068    Biso  1.000000 Si
   Si21        1.0     0.230640     0.956347     0.021586    Biso  1.000000 Si
   Si22        1.0     0.384220     0.958532     0.012929    Biso  1.000000 Si
   Si23        1.0     0.431777     0.912671     0.802617    Biso  1.000000 Si
   Si24        1.0     0.314399     0.953909     0.670317    Biso  1.000000 Si
   Si25        1.0     0.575656     0.341962     0.831980    Biso  1.000000 Si
   Si26        1.0     0.690599     0.313121     0.684161    Biso  1.000000 Si
   Si27        1.0     0.719226     0.346993     0.464453    Biso  1.000000 Si
   Si28        1.0     0.877325     0.350010     0.465283    Biso  1.000000 Si
   Si29        1.0     0.929043     0.315404     0.676159    Biso  1.000000 Si
   Si30        1.0     0.814782     0.341901     0.820215    Biso  1.000000 Si
   Si31        1.0     0.577763     0.110529     0.816226    Biso  1.000000 Si
   Si32        1.0     0.691148     0.154813     0.673206    Biso  1.000000 Si
   Si33        1.0     0.730419     0.112798     0.458521    Biso  1.000000 Si
   Si34        1.0     0.883823     0.110190     0.469742    Biso  1.000000 Si
   Si35        1.0     0.932382     0.157743     0.678689    Biso  1.000000 Si
   Si36        1.0     0.813700     0.115611     0.808199    Biso  1.000000 Si
   Si37        1.0     0.923798     0.226325     0.333574    Biso  1.000000 Si
   Si38        1.0     0.809792     0.255486     0.183969    Biso  1.000000 Si
   Si39        1.0     0.779731     0.223637     0.964806    Biso  1.000000 Si
   Si40        1.0     0.621706     0.219599     0.966416    Biso  1.000000 Si
   Si41        1.0     0.571016     0.254517     0.178443    Biso  1.000000 Si
   Si42        1.0     0.685602     0.227581     0.321490    Biso  1.000000 Si
   Si43        1.0     0.921792     0.457217     0.311530    Biso  1.000000 Si
   Si44        1.0     0.808147     0.413272     0.170111    Biso  1.000000 Si
   Si45        1.0     0.768829     0.456436     0.954697    Biso  1.000000 Si
   Si46        1.0     0.615364     0.457826     0.966762    Biso  1.000000 Si
   Si47        1.0     0.568042     0.412578     0.178374    Biso  1.000000 Si
   Si48        1.0     0.686828     0.454087     0.306237    Biso  1.000000 Si
   Si49        1.0     0.574085     0.729352     0.839952    Biso  1.000000 Si
   Si50        1.0     0.693081     0.755605     0.692272    Biso  1.000000 Si
   Si51        1.0     0.880478     0.715324     0.469797    Biso  1.000000 Si
   Si52        1.0     0.930392     0.754115     0.682544    Biso  1.000000 Si
   Si53        1.0     0.818233     0.727960     0.829449    Biso  1.000000 Si
   Si54        1.0     0.577955     0.955716     0.817134    Biso  1.000000 Si
   Si55        1.0     0.692713     0.915256     0.672687    Biso  1.000000 Si
   Si56        1.0     0.729035     0.955797     0.457444    Biso  1.000000 Si
   Si57        1.0     0.882780     0.956917     0.469160    Biso  1.000000 Si
   Si58        1.0     0.931666     0.912563     0.681452    Biso  1.000000 Si
   Si59        1.0     0.812893     0.958835     0.807192    Biso  1.000000 Si
   Si60        1.0     0.920875     0.840088     0.334082    Biso  1.000000 Si
   Si61        1.0     0.805594     0.814865     0.181397    Biso  1.000000 Si
   Si62        1.0     0.780042     0.849238     0.964061    Biso  1.000000 Si
   Si63        1.0     0.622593     0.848706     0.971748    Biso  1.000000 Si
   Si64        1.0     0.685366     0.841401     0.324538    Biso  1.000000 Si
   Si65        1.0     0.925798     0.612988     0.315462    Biso  1.000000 Si
   Si66        1.0     0.804625     0.657129     0.179800    Biso  1.000000 Si
   Si67        1.0     0.768746     0.612018     0.964256    Biso  1.000000 Si
   Si68        1.0     0.614940     0.610747     0.965348    Biso  1.000000 Si
   Si69        1.0     0.682481     0.612072     0.312175    Biso  1.000000 Si
   Si70        1.0     0.423819     0.227486     0.149995    Biso  1.000000 Si
   Si71        1.0     0.309106     0.255929     0.300977    Biso  1.000000 Si
   Si72        1.0     0.280819     0.221166     0.518797    Biso  1.000000 Si
   Si73        1.0     0.122856     0.220493     0.514962    Biso  1.000000 Si
   Si74        1.0     0.071149     0.254255     0.303323    Biso  1.000000 Si
   Si75        1.0     0.186179     0.226813     0.162341    Biso  1.000000 Si
   Si76        1.0     0.422715     0.457266     0.162332    Biso  1.000000 Si
   Si77        1.0     0.308222     0.414456     0.307688    Biso  1.000000 Si
   Si78        1.0     0.269265     0.458253     0.520475    Biso  1.000000 Si
   Si79        1.0     0.115534     0.459477     0.510428    Biso  1.000000 Si
   Si80        1.0     0.066731     0.412079     0.300699    Biso  1.000000 Si
   Si81        1.0     0.186175     0.453965     0.171636    Biso  1.000000 Si
   Si82        1.0     0.076482     0.343169     0.647892    Biso  1.000000 Si
   Si83        1.0     0.191516     0.312678     0.796086    Biso  1.000000 Si
   Si84        1.0     0.220127     0.345430     0.016382    Biso  1.000000 Si
   Si85        1.0     0.378580     0.348952     0.012699    Biso  1.000000 Si
   Si86        1.0     0.429175     0.314112     0.799025    Biso  1.000000 Si
   Si87        1.0     0.315019     0.342521     0.657985    Biso  1.000000 Si
   Si88        1.0     0.077539     0.112522     0.667195    Biso  1.000000 Si
   Si89        1.0     0.191962     0.153416     0.809962    Biso  1.000000 Si
   Si90        1.0     0.230510     0.112710     0.025315    Biso  1.000000 Si
   Si91        1.0     0.384046     0.111613     0.013762    Biso  1.000000 Si
   Si92        1.0     0.432445     0.155584     0.800591    Biso  1.000000 Si
   Si93        1.0     0.313280     0.110727     0.674684    Biso  1.000000 Si
   Si94        1.0     0.572522     0.814644     0.182616    Biso  1.000000 Si
   Si95        1.0     0.567333     0.656410     0.176247    Biso  1.000000 Si
   Al1         1.0     0.718666     0.717302     0.470715    Biso  1.000000 Al
   O1          1.0     0.367150     0.843998     0.228667    Biso  1.000000 O
   O2          1.0     0.311425     0.844311     0.404102    Biso  1.000000 O
   O3          1.0     0.200970     0.844337     0.508822    Biso  1.000000 O
   O4          1.0     0.091480     0.848918     0.403650    Biso  1.000000 O
   O5          1.0     0.110939     0.844464     0.210557    Biso  1.000000 O
   O6          1.0     0.237753     0.828836     0.245897    Biso  1.000000 O
   O7          1.0     0.369726     0.615775     0.255963    Biso  1.000000 O
   O8          1.0     0.310269     0.630733     0.424601    Biso  1.000000 O
   O9          1.0     0.192886     0.634847     0.509188    Biso  1.000000 O
   O10         1.0     0.086576     0.618716     0.398908    Biso  1.000000 O
   O11         1.0     0.115083     0.626944     0.208225    Biso  1.000000 O
   O12         1.0     0.239500     0.631020     0.261114    Biso  1.000000 O
   O13         1.0     0.318679     0.732497     0.299811    Biso  1.000000 O
   O14         1.0     0.081676     0.734694     0.309394    Biso  1.000000 O
   O15         1.0     0.426026     0.911742     0.087036    Biso  1.000000 O
   O16         1.0     0.414101     0.781333     0.068664    Biso  1.000000 O
   O17         1.0     0.392447     0.650978     0.068563    Biso  1.000000 O
   O18         1.0     0.196148     0.912956     0.107694    Biso  1.000000 O
   O19         1.0     0.185137     0.782252     0.080231    Biso  1.000000 O
   O20         1.0     0.205972     0.651262     0.072442    Biso  1.000000 O
   O21         1.0     0.991708     0.829598     0.280356    Biso  1.000000 O
   O22         1.0     0.993311     0.640679     0.264781    Biso  1.000000 O
   O23         1.0     0.134254     0.720322     0.734144    Biso  1.000000 O
   O24         1.0     0.189931     0.720406     0.908963    Biso  1.000000 O
   O25         1.0     0.298370     0.735755     0.016087    Biso  1.000000 O
   O26         1.0     0.402328     0.715435     0.900823    Biso  1.000000 O
   O27         1.0     0.387471     0.729388     0.707236    Biso  1.000000 O
   O28         1.0     0.262361     0.742664     0.751125    Biso  1.000000 O
   O29         1.0     0.132849     0.950507     0.748950    Biso  1.000000 O
   O30         1.0     0.194673     0.942441     0.917083    Biso  1.000000 O
   O31         1.0     0.307659     0.935177     0.013462    Biso  1.000000 O
   O32         1.0     0.412777     0.953367     0.901671    Biso  1.000000 O
   O33         1.0     0.388387     0.940294     0.710760    Biso  1.000000 O
   O34         1.0     0.261895     0.926837     0.751541    Biso  1.000000 O
   O35         1.0     0.177576     0.834042     0.809027    Biso  1.000000 O
   O36         1.0     0.415898     0.834386     0.819942    Biso  1.000000 O
   O37         1.0     0.075514     0.659310     0.585791    Biso  1.000000 O
   O38         1.0     0.093107     0.789245     0.577907    Biso  1.000000 O
   O39         1.0     0.100603     0.920240     0.564370    Biso  1.000000 O
   O40         1.0     0.301127     0.654775     0.615946    Biso  1.000000 O
   O41         1.0     0.306877     0.783349     0.575829    Biso  1.000000 O
   O42         1.0     0.304004     0.915531     0.566187    Biso  1.000000 O
   O43         1.0     0.504460     0.739561     0.783043    Biso  1.000000 O
   O44         1.0     0.509132     0.923383     0.778378    Biso  1.000000 O
   O45         1.0     0.633136     0.347425     0.749630    Biso  1.000000 O
   O46         1.0     0.690251     0.347807     0.576063    Biso  1.000000 O
   O47         1.0     0.798438     0.339740     0.465716    Biso  1.000000 O
   O48         1.0     0.904620     0.353907     0.577359    Biso  1.000000 O
   O49         1.0     0.887297     0.340055     0.771136    Biso  1.000000 O
   O50         1.0     0.761584     0.325118     0.734774    Biso  1.000000 O
   O51         1.0     0.632479     0.115992     0.729704    Biso  1.000000 O
   O52         1.0     0.691676     0.130551     0.559754    Biso  1.000000 O
   O53         1.0     0.807324     0.133946     0.470390    Biso  1.000000 O
   O54         1.0     0.913691     0.116412     0.580190    Biso  1.000000 O
   O55         1.0     0.887626     0.132382     0.770315    Biso  1.000000 O
   O56         1.0     0.761756     0.138731     0.723575    Biso  1.000000 O
   O57         1.0     0.676578     0.234051     0.677498    Biso  1.000000 O
   O58         1.0     0.919530     0.236182     0.658972    Biso  1.000000 O
   O59         1.0     0.572615     0.411146     0.893527    Biso  1.000000 O
   O60         1.0     0.587425     0.280715     0.907662    Biso  1.000000 O
   O61         1.0     0.602845     0.149837     0.913981    Biso  1.000000 O
   O62         1.0     0.802060     0.415600     0.864576    Biso  1.000000 O
   O63         1.0     0.810733     0.287555     0.908481    Biso  1.000000 O
   O64         1.0     0.799952     0.155277     0.910130    Biso  1.000000 O
   O65         1.0     0.005305     0.333009     0.699048    Biso  1.000000 O
   O66         1.0     0.009184     0.145262     0.705989    Biso  1.000000 O
   O67         1.0     0.867778     0.222104     0.248873    Biso  1.000000 O
   O68         1.0     0.808552     0.220978     0.076096    Biso  1.000000 O
   O69         1.0     0.700343     0.231235     0.965931    Biso  1.000000 O
   O70         1.0     0.594353     0.216938     0.078510    Biso  1.000000 O
   O71         1.0     0.613159     0.228466     0.271907    Biso  1.000000 O
   O72         1.0     0.739189     0.244075     0.236444    Biso  1.000000 O
   O73         1.0     0.866903     0.452555     0.225120    Biso  1.000000 O
   O74         1.0     0.805824     0.438839     0.057130    Biso  1.000000 O
   O75         1.0     0.691828     0.434700     0.964214    Biso  1.000000 O
   O76         1.0     0.587439     0.452385     0.078458    Biso  1.000000 O
   O77         1.0     0.611814     0.439757     0.269936    Biso  1.000000 O
   O78         1.0     0.737597     0.427193     0.222744    Biso  1.000000 O
   O79         1.0     0.823598     0.334474     0.173858    Biso  1.000000 O
   O80         1.0     0.580950     0.333975     0.162457    Biso  1.000000 O
   O81         1.0     0.925138     0.157118     0.394762    Biso  1.000000 O
   O82         1.0     0.910699     0.287709     0.408631    Biso  1.000000 O
   O83         1.0     0.896004     0.418912     0.409995    Biso  1.000000 O
   O84         1.0     0.698463     0.154769     0.368254    Biso  1.000000 O
   O85         1.0     0.688085     0.283800     0.407189    Biso  1.000000 O
   O86         1.0     0.698653     0.416161     0.410704    Biso  1.000000 O
   O87         1.0     0.494579     0.238009     0.202204    Biso  1.000000 O
   O88         1.0     0.491190     0.426554     0.204246    Biso  1.000000 O
   O89         1.0     0.632743     0.729057     0.761134    Biso  1.000000 O
   O90         1.0     0.687729     0.717597     0.590065    Biso  1.000000 O
   O91         1.0     0.802956     0.710493     0.463728    Biso  1.000000 O
   O92         1.0     0.907617     0.717410     0.582690    Biso  1.000000 O
   O93         1.0     0.889710     0.726162     0.776805    Biso  1.000000 O
   O94         1.0     0.761960     0.738769     0.747329    Biso  1.000000 O
   O95         1.0     0.631809     0.950432     0.729776    Biso  1.000000 O
   O96         1.0     0.689523     0.938139     0.558373    Biso  1.000000 O
   O97         1.0     0.805914     0.935302     0.471756    Biso  1.000000 O
   O98         1.0     0.913369     0.949724     0.579001    Biso  1.000000 O
   O99         1.0     0.887337     0.942272     0.770989    Biso  1.000000 O
   O100        1.0     0.762235     0.939782     0.719210    Biso  1.000000 O
   O101        1.0     0.686231     0.835858     0.683632    Biso  1.000000 O
   O102        1.0     0.918702     0.833627     0.671042    Biso  1.000000 O
   O103        1.0     0.571526     0.656012     0.890816    Biso  1.000000 O
   O104        1.0     0.583211     0.786451     0.922820    Biso  1.000000 O
   O105        1.0     0.603072     0.917173     0.915565    Biso  1.000000 O
   O106        1.0     0.808354     0.657576     0.886361    Biso  1.000000 O
   O107        1.0     0.816638     0.788294     0.908747    Biso  1.000000 O
   O108        1.0     0.795677     0.918711     0.907773    Biso  1.000000 O
   O109        1.0     0.007585     0.738596     0.704193    Biso  1.000000 O
   O110        1.0     0.008740     0.926322     0.706222    Biso  1.000000 O
   O111        1.0     0.864763     0.842740     0.249550    Biso  1.000000 O
   O112        1.0     0.807609     0.853728     0.075983    Biso  1.000000 O
   O113        1.0     0.700986     0.835698     0.963536    Biso  1.000000 O
   O114        1.0     0.599206     0.853947     0.085524    Biso  1.000000 O
   O115        1.0     0.610875     0.839887     0.279208    Biso  1.000000 O
   O116        1.0     0.734971     0.828121     0.231573    Biso  1.000000 O
   O117        1.0     0.865886     0.624984     0.238743    Biso  1.000000 O
   O118        1.0     0.798895     0.619537     0.074240    Biso  1.000000 O
   O119        1.0     0.691375     0.634143     0.964267    Biso  1.000000 O
   O120        1.0     0.584956     0.617646     0.075215    Biso  1.000000 O
   O121        1.0     0.608965     0.621830     0.264491    Biso  1.000000 O
   O122        1.0     0.736480     0.646057     0.240206    Biso  1.000000 O
   O123        1.0     0.816061     0.735714     0.162105    Biso  1.000000 O
   O124        1.0     0.582967     0.734841     0.165860    Biso  1.000000 O
   O125        1.0     0.922632     0.910889     0.391752    Biso  1.000000 O
   O126        1.0     0.908792     0.781046     0.412701    Biso  1.000000 O
   O127        1.0     0.914541     0.649910     0.419736    Biso  1.000000 O
   O128        1.0     0.697756     0.916937     0.364751    Biso  1.000000 O
   O129        1.0     0.693210     0.787921     0.409488    Biso  1.000000 O
   O130        1.0     0.680633     0.645117     0.420206    Biso  1.000000 O
   O131        1.0     0.495047     0.830666     0.200200    Biso  1.000000 O
   O132        1.0     0.489791     0.645130     0.201681    Biso  1.000000 O
   O133        1.0     0.367459     0.225166     0.234231    Biso  1.000000 O
   O134        1.0     0.310001     0.219153     0.407445    Biso  1.000000 O
   O135        1.0     0.201804     0.230553     0.516456    Biso  1.000000 O
   O136        1.0     0.096251     0.216869     0.402681    Biso  1.000000 O
   O137        1.0     0.113007     0.228261     0.209153    Biso  1.000000 O
   O138        1.0     0.238547     0.243623     0.249038    Biso  1.000000 O
   O139        1.0     0.367662     0.449915     0.248202    Biso  1.000000 O
   O140        1.0     0.308565     0.446216     0.417685    Biso  1.000000 O
   O141        1.0     0.192753     0.437416     0.506923    Biso  1.000000 O
   O142        1.0     0.084120     0.451799     0.401473    Biso  1.000000 O
   O143        1.0     0.112066     0.440531     0.211308    Biso  1.000000 O
   O144        1.0     0.238099     0.428766     0.255102    Biso  1.000000 O
   O145        1.0     0.320884     0.335240     0.314344    Biso  1.000000 O
   O146        1.0     0.081469     0.333738     0.317445    Biso  1.000000 O
   O147        1.0     0.424230     0.157648     0.090771    Biso  1.000000 O
   O148        1.0     0.411563     0.288042     0.072935    Biso  1.000000 O
   O149        1.0     0.399392     0.419071     0.062952    Biso  1.000000 O
   O150        1.0     0.199344     0.153504     0.117117    Biso  1.000000 O
   O151        1.0     0.191151     0.281719     0.075003    Biso  1.000000 O
   O152        1.0     0.197963     0.414060     0.069244    Biso  1.000000 O
   O153        1.0     0.994817     0.236927     0.281490    Biso  1.000000 O
   O154        1.0     0.989999     0.423536     0.272789    Biso  1.000000 O
   O155        1.0     0.132256     0.345203     0.733040    Biso  1.000000 O
   O156        1.0     0.191139     0.345357     0.905217    Biso  1.000000 O
   O157        1.0     0.299640     0.340452     0.014533    Biso  1.000000 O
   O158        1.0     0.405363     0.349577     0.900460    Biso  1.000000 O
   O159        1.0     0.387583     0.344043     0.707123    Biso  1.000000 O
   O160        1.0     0.261400     0.329078     0.743982    Biso  1.000000 O
   O161        1.0     0.131625     0.116773     0.754828    Biso  1.000000 O
   O162        1.0     0.191395     0.130671     0.924499    Biso  1.000000 O
   O163        1.0     0.307239     0.134034     0.012145    Biso  1.000000 O
   O164        1.0     0.414431     0.119760     0.904153    Biso  1.000000 O
   O165        1.0     0.387775     0.124422     0.712810    Biso  1.000000 O
   O166        1.0     0.261976     0.133028     0.760662    Biso  1.000000 O
   O167        1.0     0.181739     0.233014     0.801771    Biso  1.000000 O
   O168        1.0     0.417756     0.234650     0.808749    Biso  1.000000 O
   O169        1.0     0.076819     0.413309     0.588928    Biso  1.000000 O
   O170        1.0     0.089275     0.283095     0.570545    Biso  1.000000 O
   O171        1.0     0.103767     0.151667     0.569883    Biso  1.000000 O
   O172        1.0     0.302693     0.414574     0.607318    Biso  1.000000 O
   O173        1.0     0.312675     0.284477     0.575391    Biso  1.000000 O
   O174        1.0     0.299957     0.152411     0.574039    Biso  1.000000 O
   O175        1.0     0.505649     0.331411     0.777081    Biso  1.000000 O
   O176        1.0     0.509433     0.142829     0.775818    Biso  1.000000 O
   O177        1.0     0.432379     0.535069     0.135121    Biso  1.000000 O
   O178        1.0     0.197054     0.532157     0.149025    Biso  1.000000 O
   O179        1.0     0.276848     0.535804     0.551172    Biso  1.000000 O
   O180        1.0     0.109272     0.536085     0.545706    Biso  1.000000 O
   O181        1.0     0.066700     0.035476     0.637699    Biso  1.000000 O
   O182        1.0     0.303906     0.032575     0.650398    Biso  1.000000 O
   O183        1.0     0.223955     0.034267     0.049772    Biso  1.000000 O
   O184        1.0     0.390905     0.035003     0.049230    Biso  1.000000 O
   O185        1.0     0.566715     0.033275     0.845355    Biso  1.000000 O
   O186        1.0     0.806500     0.037347     0.831630    Biso  1.000000 O
   O187        1.0     0.723248     0.034776     0.434346    Biso  1.000000 O
   O188        1.0     0.890248     0.033795     0.433869    Biso  1.000000 O
   O189        1.0     0.933797     0.534263     0.338215    Biso  1.000000 O
   O190        1.0     0.696673     0.532801     0.322666    Biso  1.000000 O
   O191        1.0     0.774997     0.534914     0.930324    Biso  1.000000 O
   O192        1.0     0.607991     0.534116     0.929385    Biso  1.000000 O
   H1          1.0     0.612036     0.623604     0.479294    Biso  1.000000 H
   H2          1.0     0.500613     0.590811     0.736623    Biso  1.000000 H
   H3          1.0     0.601854     0.635030     0.649699    Biso  1.000000 H
   H4          1.0     0.532002     0.577364     0.376476    Biso  1.000000 H
   H5          1.0     0.426603     0.532394     0.449960    Biso  1.000000 H
   H6          1.0     0.411459     0.539192     0.633449    Biso  1.000000 H
   C1          1.0     0.456183     0.557975     0.599196    Biso  1.000000 C
   C2          1.0     0.505355     0.586577     0.656938    Biso  1.000000 C
   C3          1.0     0.561539     0.610706     0.611381    Biso  1.000000 C
   C4          1.0     0.521469     0.578285     0.455124    Biso  1.000000 C
   C5          1.0     0.464271     0.553879     0.497056    Biso  1.000000 C
   N1          1.0     0.568071     0.605770     0.512798    Biso  1.000000 N
