
#======================================================================
# CRYSTAL DATA
#----------------------------------------------------------------------
data_VESTA_phase_1

_chemical_name_common                  '^-2                                  '
_cell_length_a                         20.382000
_cell_length_b                         20.165199
_cell_length_c                         13.574200
_cell_angle_alpha                      90
_cell_angle_beta                       90
_cell_angle_gamma                      90
_cell_volume                           5579.086950
_space_group_name_H-M_alt              'P 1'
_space_group_IT_number                 1

loop_
_space_group_symop_operation_xyz
   'x, y, z'

loop_
   _atom_site_label
   _atom_site_occupancy
   _atom_site_fract_x
   _atom_site_fract_y
   _atom_site_fract_z
   _atom_site_adp_type
   _atom_site_B_iso_or_equiv
   _atom_site_type_symbol
   Si1         1.0     0.425508     0.842785     0.143986    Biso  1.000000 Si
   Si2         1.0     0.309046     0.814210     0.292347    Biso  1.000000 Si
   Si3         1.0     0.281263     0.850882     0.510024    Biso  1.000000 Si
   Si4         1.0     0.122586     0.850108     0.514486    Biso  1.000000 Si
   Si5         1.0     0.070461     0.815193     0.300527    Biso  1.000000 Si
   Si6         1.0     0.183564     0.842608     0.156301    Biso  1.000000 Si
   Si7         1.0     0.424641     0.613419     0.163875    Biso  1.000000 Si
   Si8         1.0     0.308316     0.655464     0.306415    Biso  1.000000 Si
   Si9         1.0     0.269414     0.614366     0.521270    Biso  1.000000 Si
   Si10        1.0     0.115448     0.613865     0.516300    Biso  1.000000 Si
   Si11        1.0     0.066078     0.657173     0.303313    Biso  1.000000 Si
   Si12        1.0     0.184619     0.611100     0.175188    Biso  1.000000 Si
   Si13        1.0     0.077431     0.729220     0.656130    Biso  1.000000 Si
   Si14        1.0     0.192157     0.757939     0.803053    Biso  1.000000 Si
   Si15        1.0     0.217968     0.720612     0.023702    Biso  1.000000 Si
   Si16        1.0     0.374008     0.720923     0.018012    Biso  1.000000 Si
   Si17        1.0     0.420872     0.756943     0.807201    Biso  1.000000 Si
   Si18        1.0     0.312722     0.731711     0.654143    Biso  1.000000 Si
   Si19        1.0     0.076629     0.956698     0.665548    Biso  1.000000 Si
   Si20        1.0     0.193393     0.915547     0.808426    Biso  1.000000 Si
   Si21        1.0     0.232252     0.959156     0.021885    Biso  1.000000 Si
   Si22        1.0     0.385321     0.960231     0.012382    Biso  1.000000 Si
   Si23        1.0     0.432451     0.914785     0.801989    Biso  1.000000 Si
   Si24        1.0     0.314686     0.955624     0.669649    Biso  1.000000 Si
   Si25        1.0     0.575085     0.341396     0.834441    Biso  1.000000 Si
   Si26        1.0     0.691141     0.311336     0.684513    Biso  1.000000 Si
   Si27        1.0     0.718310     0.349768     0.467535    Biso  1.000000 Si
   Si28        1.0     0.876502     0.351046     0.467929    Biso  1.000000 Si
   Si29        1.0     0.927385     0.313118     0.679574    Biso  1.000000 Si
   Si30        1.0     0.814274     0.337503     0.826138    Biso  1.000000 Si
   Si31        1.0     0.575633     0.113408     0.819936    Biso  1.000000 Si
   Si32        1.0     0.691517     0.153925     0.674730    Biso  1.000000 Si
   Si33        1.0     0.729486     0.110327     0.461504    Biso  1.000000 Si
   Si34        1.0     0.882644     0.110808     0.472718    Biso  1.000000 Si
   Si35        1.0     0.930975     0.155016     0.683031    Biso  1.000000 Si
   Si36        1.0     0.812169     0.113761     0.812689    Biso  1.000000 Si
   Si37        1.0     0.923413     0.227472     0.336336    Biso  1.000000 Si
   Si38        1.0     0.807918     0.255242     0.189368    Biso  1.000000 Si
   Si39        1.0     0.778498     0.220051     0.969583    Biso  1.000000 Si
   Si40        1.0     0.620396     0.220528     0.971126    Biso  1.000000 Si
   Si41        1.0     0.571226     0.255858     0.184142    Biso  1.000000 Si
   Si42        1.0     0.683832     0.228869     0.330062    Biso  1.000000 Si
   Si43        1.0     0.921410     0.458617     0.318279    Biso  1.000000 Si
   Si44        1.0     0.807581     0.413233     0.174973    Biso  1.000000 Si
   Si45        1.0     0.768782     0.454428     0.959269    Biso  1.000000 Si
   Si46        1.0     0.615549     0.457898     0.968454    Biso  1.000000 Si
   Si47        1.0     0.567002     0.413871     0.180729    Biso  1.000000 Si
   Si48        1.0     0.685799     0.456165     0.308493    Biso  1.000000 Si
   Si49        1.0     0.571777     0.725279     0.836074    Biso  1.000000 Si
   Si50        1.0     0.720641     0.722810     0.460705    Biso  1.000000 Si
   Si51        1.0     0.877872     0.722305     0.467746    Biso  1.000000 Si
   Si52        1.0     0.927794     0.756135     0.679515    Biso  1.000000 Si
   Si53        1.0     0.813771     0.725778     0.820698    Biso  1.000000 Si
   Si54        1.0     0.578054     0.959716     0.813511    Biso  1.000000 Si
   Si55        1.0     0.687691     0.916221     0.670766    Biso  1.000000 Si
   Si56        1.0     0.730463     0.955398     0.456135    Biso  1.000000 Si
   Si57        1.0     0.884098     0.958475     0.465801    Biso  1.000000 Si
   Si58        1.0     0.931478     0.913893     0.677291    Biso  1.000000 Si
   Si59        1.0     0.811095     0.956982     0.803121    Biso  1.000000 Si
   Si60        1.0     0.923654     0.842172     0.330308    Biso  1.000000 Si
   Si61        1.0     0.809432     0.813039     0.176879    Biso  1.000000 Si
   Si62        1.0     0.782067     0.846284     0.960880    Biso  1.000000 Si
   Si63        1.0     0.624229     0.850055     0.961784    Biso  1.000000 Si
   Si64        1.0     0.572145     0.814807     0.174102    Biso  1.000000 Si
   Si65        1.0     0.686517     0.841498     0.314227    Biso  1.000000 Si
   Si66        1.0     0.920793     0.613832     0.316839    Biso  1.000000 Si
   Si67        1.0     0.808006     0.654096     0.167674    Biso  1.000000 Si
   Si68        1.0     0.771716     0.610095     0.955250    Biso  1.000000 Si
   Si69        1.0     0.618473     0.610856     0.972555    Biso  1.000000 Si
   Si70        1.0     0.570890     0.656516     0.182015    Biso  1.000000 Si
   Si71        1.0     0.689514     0.613651     0.305389    Biso  1.000000 Si
   Si72        1.0     0.424087     0.228814     0.151405    Biso  1.000000 Si
   Si73        1.0     0.308131     0.257841     0.299897    Biso  1.000000 Si
   Si74        1.0     0.280158     0.221945     0.518247    Biso  1.000000 Si
   Si75        1.0     0.122032     0.220718     0.517286    Biso  1.000000 Si
   Si76        1.0     0.070891     0.255005     0.305581    Biso  1.000000 Si
   Si77        1.0     0.184738     0.229559     0.160563    Biso  1.000000 Si
   Si78        1.0     0.422269     0.458146     0.164507    Biso  1.000000 Si
   Si79        1.0     0.307675     0.415512     0.309092    Biso  1.000000 Si
   Si80        1.0     0.269021     0.459153     0.522611    Biso  1.000000 Si
   Si81        1.0     0.115439     0.459958     0.513778    Biso  1.000000 Si
   Si82        1.0     0.066367     0.413158     0.303888    Biso  1.000000 Si
   Si83        1.0     0.185325     0.454378     0.173331    Biso  1.000000 Si
   Si84        1.0     0.074979     0.343241     0.649452    Biso  1.000000 Si
   Si85        1.0     0.191037     0.313190     0.796582    Biso  1.000000 Si
   Si86        1.0     0.219277     0.347228     0.016739    Biso  1.000000 Si
   Si87        1.0     0.377536     0.349872     0.015291    Biso  1.000000 Si
   Si88        1.0     0.427172     0.315020     0.801918    Biso  1.000000 Si
   Si89        1.0     0.314882     0.342511     0.656705    Biso  1.000000 Si
   Si90        1.0     0.076923     0.111877     0.669181    Biso  1.000000 Si
   Si91        1.0     0.191626     0.154234     0.811583    Biso  1.000000 Si
   Si92        1.0     0.231352     0.114127     0.027397    Biso  1.000000 Si
   Si93        1.0     0.384507     0.113057     0.015807    Biso  1.000000 Si
   Si94        1.0     0.431225     0.157203     0.802546    Biso  1.000000 Si
   Si95        1.0     0.313042     0.112586     0.674733    Biso  1.000000 Si
   Al1         1.0     0.684690     0.754730     0.682583    Biso  1.000000 Al
   O1          1.0     0.368402     0.844444     0.227049    Biso  1.000000 O
   O2          1.0     0.309218     0.851710     0.398109    Biso  1.000000 O
   O3          1.0     0.201934     0.846658     0.509636    Biso  1.000000 O
   O4          1.0     0.092296     0.848109     0.404557    Biso  1.000000 O
   O5          1.0     0.113091     0.846511     0.210922    Biso  1.000000 O
   O6          1.0     0.239553     0.826704     0.237865    Biso  1.000000 O
   O7          1.0     0.369160     0.620772     0.249118    Biso  1.000000 O
   O8          1.0     0.308606     0.626734     0.418459    Biso  1.000000 O
   O9          1.0     0.192807     0.635024     0.507749    Biso  1.000000 O
   O10         1.0     0.080852     0.624279     0.410242    Biso  1.000000 O
   O11         1.0     0.111506     0.621507     0.220222    Biso  1.000000 O
   O12         1.0     0.238826     0.637389     0.254471    Biso  1.000000 O
   O13         1.0     0.319447     0.734963     0.308158    Biso  1.000000 O
   O14         1.0     0.083235     0.735636     0.306291    Biso  1.000000 O
   O15         1.0     0.427547     0.913182     0.085728    Biso  1.000000 O
   O16         1.0     0.412756     0.783614     0.064647    Biso  1.000000 O
   O17         1.0     0.403023     0.652261     0.063854    Biso  1.000000 O
   O18         1.0     0.196392     0.913748     0.104155    Biso  1.000000 O
   O19         1.0     0.181876     0.784049     0.073688    Biso  1.000000 O
   O20         1.0     0.191863     0.651607     0.072073    Biso  1.000000 O
   O21         1.0     0.994355     0.831999     0.277141    Biso  1.000000 O
   O22         1.0     0.989352     0.645587     0.276104    Biso  1.000000 O
   O23         1.0     0.128866     0.727192     0.747540    Biso  1.000000 O
   O24         1.0     0.202196     0.719005     0.906737    Biso  1.000000 O
   O25         1.0     0.296538     0.727013     0.044129    Biso  1.000000 O
   O26         1.0     0.384443     0.720333     0.899498    Biso  1.000000 O
   O27         1.0     0.384594     0.733578     0.706100    Biso  1.000000 O
   O28         1.0     0.257109     0.747827     0.735640    Biso  1.000000 O
   O29         1.0     0.132494     0.948205     0.749731    Biso  1.000000 O
   O30         1.0     0.197163     0.950866     0.915378    Biso  1.000000 O
   O31         1.0     0.308839     0.936298     0.013487    Biso  1.000000 O
   O32         1.0     0.413426     0.956017     0.900777    Biso  1.000000 O
   O33         1.0     0.388542     0.941757     0.710173    Biso  1.000000 O
   O34         1.0     0.261971     0.927131     0.749367    Biso  1.000000 O
   O35         1.0     0.181551     0.836536     0.823024    Biso  1.000000 O
   O36         1.0     0.416514     0.836651     0.821005    Biso  1.000000 O
   O37         1.0     0.079465     0.658230     0.599472    Biso  1.000000 O
   O38         1.0     0.096598     0.787408     0.578387    Biso  1.000000 O
   O39         1.0     0.099443     0.919076     0.565170    Biso  1.000000 O
   O40         1.0     0.302765     0.657635     0.608767    Biso  1.000000 O
   O41         1.0     0.310582     0.785748     0.565651    Biso  1.000000 O
   O42         1.0     0.305070     0.918393     0.564451    Biso  1.000000 O
   O43         1.0     0.495918     0.732015     0.798522    Biso  1.000000 O
   O44         1.0     0.509539     0.925372     0.776709    Biso  1.000000 O
   O45         1.0     0.631267     0.340945     0.749961    Biso  1.000000 O
   O46         1.0     0.693990     0.352665     0.581543    Biso  1.000000 O
   O47         1.0     0.797530     0.342584     0.461476    Biso  1.000000 O
   O48         1.0     0.900386     0.350831     0.581686    Biso  1.000000 O
   O49         1.0     0.886380     0.337276     0.775499    Biso  1.000000 O
   O50         1.0     0.760006     0.320187     0.742538    Biso  1.000000 O
   O51         1.0     0.631992     0.121159     0.736672    Biso  1.000000 O
   O52         1.0     0.692507     0.119894     0.566670    Biso  1.000000 O
   O53         1.0     0.805899     0.133608     0.472919    Biso  1.000000 O
   O54         1.0     0.911243     0.114174     0.584286    Biso  1.000000 O
   O55         1.0     0.886552     0.129876     0.775307    Biso  1.000000 O
   O56         1.0     0.761255     0.141872     0.729955    Biso  1.000000 O
   O57         1.0     0.678960     0.233216     0.662743    Biso  1.000000 O
   O58         1.0     0.919208     0.233680     0.663390    Biso  1.000000 O
   O59         1.0     0.575196     0.412930     0.889901    Biso  1.000000 O
   O60         1.0     0.586011     0.282903     0.915192    Biso  1.000000 O
   O61         1.0     0.597754     0.151399     0.920476    Biso  1.000000 O
   O62         1.0     0.801202     0.410562     0.871913    Biso  1.000000 O
   O63         1.0     0.812560     0.282567     0.913744    Biso  1.000000 O
   O64         1.0     0.799382     0.150733     0.917593    Biso  1.000000 O
   O65         1.0     0.003595     0.332638     0.699656    Biso  1.000000 O
   O66         1.0     0.007809     0.142007     0.709280    Biso  1.000000 O
   O67         1.0     0.867717     0.222296     0.251258    Biso  1.000000 O
   O68         1.0     0.803371     0.218753     0.083073    Biso  1.000000 O
   O69         1.0     0.699299     0.229405     0.964527    Biso  1.000000 O
   O70         1.0     0.596595     0.218877     0.084958    Biso  1.000000 O
   O71         1.0     0.612016     0.229229     0.278512    Biso  1.000000 O
   O72         1.0     0.739089     0.245065     0.247320    Biso  1.000000 O
   O73         1.0     0.865751     0.451202     0.233481    Biso  1.000000 O
   O74         1.0     0.806475     0.440646     0.062737    Biso  1.000000 O
   O75         1.0     0.691707     0.433592     0.971982    Biso  1.000000 O
   O76         1.0     0.583601     0.450708     0.077472    Biso  1.000000 O
   O77         1.0     0.610932     0.444976     0.269446    Biso  1.000000 O
   O78         1.0     0.736753     0.427517     0.226657    Biso  1.000000 O
   O79         1.0     0.821771     0.334073     0.175584    Biso  1.000000 O
   O80         1.0     0.581856     0.335310     0.170359    Biso  1.000000 O
   O81         1.0     0.924240     0.159912     0.401369    Biso  1.000000 O
   O82         1.0     0.910650     0.290529     0.408331    Biso  1.000000 O
   O83         1.0     0.898346     0.421225     0.418937    Biso  1.000000 O
   O84         1.0     0.695061     0.156145     0.377909    Biso  1.000000 O
   O85         1.0     0.685091     0.285641     0.415129    Biso  1.000000 O
   O86         1.0     0.695419     0.418093     0.413316    Biso  1.000000 O
   O87         1.0     0.494387     0.239484     0.204843    Biso  1.000000 O
   O88         1.0     0.490034     0.426604     0.207626    Biso  1.000000 O
   O89         1.0     0.616742     0.714034     0.739776    Biso  1.000000 O
   O90         1.0     0.685390     0.719726     0.565224    Biso  1.000000 O
   O91         1.0     0.799649     0.735196     0.465204    Biso  1.000000 O
   O92         1.0     0.905139     0.718378     0.579394    Biso  1.000000 O
   O93         1.0     0.887317     0.728386     0.772775    Biso  1.000000 O
   O94         1.0     0.757792     0.738249     0.741731    Biso  1.000000 O
   O95         1.0     0.630737     0.960930     0.724419    Biso  1.000000 O
   O96         1.0     0.689783     0.940219     0.555758    Biso  1.000000 O
   O97         1.0     0.807560     0.935693     0.471401    Biso  1.000000 O
   O98         1.0     0.917805     0.950955     0.573186    Biso  1.000000 O
   O99         1.0     0.885658     0.945545     0.762968    Biso  1.000000 O
   O100        1.0     0.759070     0.935675     0.718835    Biso  1.000000 O
   O101        1.0     0.670742     0.839607     0.682117    Biso  1.000000 O
   O102        1.0     0.916414     0.835448     0.664933    Biso  1.000000 O
   O103        1.0     0.572932     0.658690     0.905262    Biso  1.000000 O
   O104        1.0     0.590941     0.789499     0.901045    Biso  1.000000 O
   O105        1.0     0.606323     0.920134     0.909213    Biso  1.000000 O
   O106        1.0     0.807348     0.651740     0.869535    Biso  1.000000 O
   O107        1.0     0.812567     0.781019     0.909155    Biso  1.000000 O
   O108        1.0     0.800769     0.914438     0.903562    Biso  1.000000 O
   O109        1.0     0.005036     0.741575     0.700394    Biso  1.000000 O
   O110        1.0     0.008142     0.925908     0.707009    Biso  1.000000 O
   O111        1.0     0.867059     0.841641     0.246970    Biso  1.000000 O
   O112        1.0     0.812672     0.850844     0.071513    Biso  1.000000 O
   O113        1.0     0.702611     0.839160     0.966946    Biso  1.000000 O
   O114        1.0     0.593851     0.851000     0.072445    Biso  1.000000 O
   O115        1.0     0.613440     0.843799     0.266285    Biso  1.000000 O
   O116        1.0     0.738326     0.827460     0.225776    Biso  1.000000 O
   O117        1.0     0.865882     0.619571     0.231143    Biso  1.000000 O
   O118        1.0     0.809810     0.621994     0.058790    Biso  1.000000 O
   O119        1.0     0.694982     0.633352     0.966250    Biso  1.000000 O
   O120        1.0     0.592999     0.614112     0.086026    Biso  1.000000 O
   O121        1.0     0.613090     0.630178     0.276570    Biso  1.000000 O
   O122        1.0     0.736375     0.637772     0.215664    Biso  1.000000 O
   O123        1.0     0.819183     0.733511     0.163199    Biso  1.000000 O
   O124        1.0     0.583384     0.734891     0.163124    Biso  1.000000 O
   O125        1.0     0.923117     0.913425     0.385993    Biso  1.000000 O
   O126        1.0     0.914212     0.782869     0.410222    Biso  1.000000 O
   O127        1.0     0.896096     0.652155     0.415158    Biso  1.000000 O
   O128        1.0     0.700885     0.912725     0.365121    Biso  1.000000 O
   O129        1.0     0.689004     0.781662     0.393451    Biso  1.000000 O
   O130        1.0     0.707561     0.651124     0.406763    Biso  1.000000 O
   O131        1.0     0.495319     0.830130     0.197429    Biso  1.000000 O
   O132        1.0     0.493625     0.642656     0.206526    Biso  1.000000 O
   O133        1.0     0.367023     0.226609     0.234644    Biso  1.000000 O
   O134        1.0     0.305855     0.219397     0.405048    Biso  1.000000 O
   O135        1.0     0.201007     0.230340     0.521939    Biso  1.000000 O
   O136        1.0     0.097444     0.217288     0.403904    Biso  1.000000 O
   O137        1.0     0.112451     0.230417     0.210335    Biso  1.000000 O
   O138        1.0     0.238436     0.248718     0.244240    Biso  1.000000 O
   O139        1.0     0.366661     0.451935     0.249830    Biso  1.000000 O
   O140        1.0     0.307175     0.447566     0.418847    Biso  1.000000 O
   O141        1.0     0.192543     0.437586     0.511600    Biso  1.000000 O
   O142        1.0     0.085294     0.453098     0.403880    Biso  1.000000 O
   O143        1.0     0.111413     0.440153     0.213212    Biso  1.000000 O
   O144        1.0     0.237491     0.428265     0.255824    Biso  1.000000 O
   O145        1.0     0.321747     0.336554     0.316800    Biso  1.000000 O
   O146        1.0     0.079605     0.334592     0.321165    Biso  1.000000 O
   O147        1.0     0.425361     0.158885     0.092373    Biso  1.000000 O
   O148        1.0     0.412322     0.289011     0.073394    Biso  1.000000 O
   O149        1.0     0.398761     0.419944     0.065212    Biso  1.000000 O
   O150        1.0     0.198425     0.155997     0.116724    Biso  1.000000 O
   O151        1.0     0.187015     0.283472     0.071495    Biso  1.000000 O
   O152        1.0     0.196870     0.415765     0.069783    Biso  1.000000 O
   O153        1.0     0.994734     0.236428     0.284581    Biso  1.000000 O
   O154        1.0     0.989756     0.426590     0.277376    Biso  1.000000 O
   O155        1.0     0.130469     0.344772     0.735141    Biso  1.000000 O
   O156        1.0     0.193951     0.348931     0.903600    Biso  1.000000 O
   O157        1.0     0.298695     0.340500     0.021336    Biso  1.000000 O
   O158        1.0     0.401811     0.351573     0.901706    Biso  1.000000 O
   O159        1.0     0.386788     0.343800     0.707987    Biso  1.000000 O
   O160        1.0     0.259775     0.327118     0.739731    Biso  1.000000 O
   O161        1.0     0.131249     0.117763     0.756273    Biso  1.000000 O
   O162        1.0     0.192866     0.128896     0.924920    Biso  1.000000 O
   O163        1.0     0.307902     0.136458     0.015276    Biso  1.000000 O
   O164        1.0     0.414130     0.120415     0.905649    Biso  1.000000 O
   O165        1.0     0.387178     0.125803     0.714354    Biso  1.000000 O
   O166        1.0     0.261120     0.136273     0.758899    Biso  1.000000 O
   O167        1.0     0.180367     0.233910     0.808283    Biso  1.000000 O
   O168        1.0     0.414913     0.235818     0.812968    Biso  1.000000 O
   O169        1.0     0.075665     0.413715     0.591087    Biso  1.000000 O
   O170        1.0     0.088034     0.283723     0.571292    Biso  1.000000 O
   O171        1.0     0.101314     0.152212     0.571785    Biso  1.000000 O
   O172        1.0     0.303570     0.415557     0.608534    Biso  1.000000 O
   O173        1.0     0.313383     0.285978     0.571578    Biso  1.000000 O
   O174        1.0     0.301397     0.153666     0.573017    Biso  1.000000 O
   O175        1.0     0.504041     0.331525     0.782251    Biso  1.000000 O
   O176        1.0     0.508272     0.146309     0.776858    Biso  1.000000 O
   O177        1.0     0.433127     0.535578     0.136555    Biso  1.000000 O
   O178        1.0     0.196279     0.532901     0.153162    Biso  1.000000 O
   O179        1.0     0.276564     0.536798     0.553195    Biso  1.000000 O
   O180        1.0     0.109365     0.536569     0.548947    Biso  1.000000 O
   O181        1.0     0.068133     0.034694     0.639028    Biso  1.000000 O
   O182        1.0     0.303267     0.034347     0.651758    Biso  1.000000 O
   O183        1.0     0.226521     0.036113     0.055859    Biso  1.000000 O
   O184        1.0     0.391161     0.036315     0.050623    Biso  1.000000 O
   O185        1.0     0.563615     0.036019     0.846747    Biso  1.000000 O
   O186        1.0     0.802027     0.035108     0.830077    Biso  1.000000 O
   O187        1.0     0.724419     0.033627     0.426935    Biso  1.000000 O
   O188        1.0     0.890016     0.035640     0.431627    Biso  1.000000 O
   O189        1.0     0.931888     0.536265     0.344364    Biso  1.000000 O
   O190        1.0     0.697562     0.534699     0.325902    Biso  1.000000 O
   O191        1.0     0.775008     0.531624     0.928070    Biso  1.000000 O
   O192        1.0     0.609867     0.534846     0.933662    Biso  1.000000 O
   H1          1.0     0.575364     0.659572     0.664051    Biso  1.000000 H
   H2          1.0     0.406544     0.539494     0.641895    Biso  1.000000 H
   H3          1.0     0.483436     0.611965     0.740636    Biso  1.000000 H
   H4          1.0     0.605577     0.642111     0.500688    Biso  1.000000 H
   H5          1.0     0.534192     0.571101     0.390371    Biso  1.000000 H
   H6          1.0     0.432320     0.519447     0.463248    Biso  1.000000 H
   C1          1.0     0.464782     0.549856     0.508429    Biso  1.000000 C
   C2          1.0     0.450102     0.560791     0.607753    Biso  1.000000 C
   C3          1.0     0.491590     0.600402     0.663324    Biso  1.000000 C
   C4          1.0     0.560891     0.617800     0.525925    Biso  1.000000 C
   C5          1.0     0.520973     0.578394     0.467306    Biso  1.000000 C
   N1          1.0     0.545186     0.627830     0.621289    Biso  1.000000 N
