
#======================================================================
# CRYSTAL DATA
#----------------------------------------------------------------------
data_VESTA_phase_1

_chemical_name_common                  'ï¿½'
_cell_length_a                         20.382000
_cell_length_b                         20.165199
_cell_length_c                         13.574200
_cell_angle_alpha                      90
_cell_angle_beta                       90
_cell_angle_gamma                      90
_cell_volume                           5579.086950
_space_group_name_H-M_alt              'P 1'
_space_group_IT_number                 1

loop_
_space_group_symop_operation_xyz
   'x, y, z'

loop_
   _atom_site_label
   _atom_site_occupancy
   _atom_site_fract_x
   _atom_site_fract_y
   _atom_site_fract_z
   _atom_site_adp_type
   _atom_site_B_iso_or_equiv
   _atom_site_type_symbol
   Si1         1.0     0.425115     0.841982     0.143672    Biso  1.000000 Si
   Si2         1.0     0.311967     0.813480     0.296612    Biso  1.000000 Si
   Si3         1.0     0.277927     0.849930     0.511588    Biso  1.000000 Si
   Si4         1.0     0.121706     0.852472     0.511343    Biso  1.000000 Si
   Si5         1.0     0.068381     0.815824     0.300270    Biso  1.000000 Si
   Si6         1.0     0.186489     0.844078     0.164555    Biso  1.000000 Si
   Si7         1.0     0.421738     0.612215     0.169222    Biso  1.000000 Si
   Si8         1.0     0.309343     0.654089     0.311827    Biso  1.000000 Si
   Si9         1.0     0.264593     0.614685     0.523671    Biso  1.000000 Si
   Si10        1.0     0.111605     0.613059     0.511337    Biso  1.000000 Si
   Si11        1.0     0.065421     0.657449     0.298981    Biso  1.000000 Si
   Si12        1.0     0.187725     0.610838     0.177643    Biso  1.000000 Si
   Si13        1.0     0.080409     0.729617     0.652367    Biso  1.000000 Si
   Si14        1.0     0.189658     0.756426     0.806937    Biso  1.000000 Si
   Si15        1.0     0.219496     0.722574     0.025442    Biso  1.000000 Si
   Si16        1.0     0.376940     0.718981     0.013330    Biso  1.000000 Si
   Si17        1.0     0.307782     0.729732     0.661583    Biso  1.000000 Si
   Si18        1.0     0.075891     0.957966     0.665715    Biso  1.000000 Si
   Si19        1.0     0.191126     0.914702     0.808189    Biso  1.000000 Si
   Si20        1.0     0.231806     0.957947     0.021110    Biso  1.000000 Si
   Si21        1.0     0.385257     0.959993     0.009340    Biso  1.000000 Si
   Si22        1.0     0.432914     0.915035     0.800798    Biso  1.000000 Si
   Si23        1.0     0.313329     0.955109     0.671603    Biso  1.000000 Si
   Si24        1.0     0.575285     0.342920     0.831146    Biso  1.000000 Si
   Si25        1.0     0.690855     0.314715     0.680545    Biso  1.000000 Si
   Si26        1.0     0.719172     0.350468     0.463449    Biso  1.000000 Si
   Si27        1.0     0.877423     0.351311     0.466546    Biso  1.000000 Si
   Si28        1.0     0.928030     0.314416     0.678322    Biso  1.000000 Si
   Si29        1.0     0.813945     0.341546     0.821254    Biso  1.000000 Si
   Si30        1.0     0.577175     0.114098     0.818016    Biso  1.000000 Si
   Si31        1.0     0.692043     0.156716     0.671687    Biso  1.000000 Si
   Si32        1.0     0.730549     0.112090     0.459569    Biso  1.000000 Si
   Si33        1.0     0.883984     0.111749     0.469500    Biso  1.000000 Si
   Si34        1.0     0.931968     0.156680     0.680223    Biso  1.000000 Si
   Si35        1.0     0.812565     0.115195     0.808208    Biso  1.000000 Si
   Si36        1.0     0.923242     0.228699     0.332583    Biso  1.000000 Si
   Si37        1.0     0.807588     0.257571     0.184186    Biso  1.000000 Si
   Si38        1.0     0.779084     0.222618     0.964798    Biso  1.000000 Si
   Si39        1.0     0.620793     0.221805     0.968524    Biso  1.000000 Si
   Si40        1.0     0.571267     0.256757     0.182516    Biso  1.000000 Si
   Si41        1.0     0.684583     0.229204     0.324759    Biso  1.000000 Si
   Si42        1.0     0.921746     0.458611     0.315490    Biso  1.000000 Si
   Si43        1.0     0.807446     0.416307     0.170997    Biso  1.000000 Si
   Si44        1.0     0.769231     0.457384     0.956322    Biso  1.000000 Si
   Si45        1.0     0.616029     0.458330     0.967827    Biso  1.000000 Si
   Si46        1.0     0.567619     0.414739     0.180907    Biso  1.000000 Si
   Si47        1.0     0.686676     0.459129     0.305884    Biso  1.000000 Si
   Si48        1.0     0.576474     0.725531     0.826963    Biso  1.000000 Si
   Si49        1.0     0.693984     0.757265     0.683376    Biso  1.000000 Si
   Si50        1.0     0.720676     0.724274     0.462592    Biso  1.000000 Si
   Si51        1.0     0.879082     0.722293     0.463714    Biso  1.000000 Si
   Si52        1.0     0.930079     0.757499     0.676490    Biso  1.000000 Si
   Si53        1.0     0.818015     0.728339     0.818781    Biso  1.000000 Si
   Si54        1.0     0.578105     0.959293     0.811578    Biso  1.000000 Si
   Si55        1.0     0.691257     0.915626     0.668398    Biso  1.000000 Si
   Si56        1.0     0.731435     0.956361     0.453335    Biso  1.000000 Si
   Si57        1.0     0.884962     0.958859     0.464720    Biso  1.000000 Si
   Si58        1.0     0.930980     0.914890     0.678375    Biso  1.000000 Si
   Si59        1.0     0.811598     0.958470     0.804222    Biso  1.000000 Si
   Si60        1.0     0.923137     0.844083     0.325918    Biso  1.000000 Si
   Si61        1.0     0.808453     0.813321     0.177941    Biso  1.000000 Si
   Si62        1.0     0.779952     0.847330     0.958000    Biso  1.000000 Si
   Si63        1.0     0.622222     0.848208     0.958790    Biso  1.000000 Si
   Si64        1.0     0.685806     0.841820     0.317569    Biso  1.000000 Si
   Si65        1.0     0.922289     0.613341     0.312929    Biso  1.000000 Si
   Si66        1.0     0.808380     0.655578     0.168935    Biso  1.000000 Si
   Si67        1.0     0.769949     0.613066     0.955298    Biso  1.000000 Si
   Si68        1.0     0.616918     0.611629     0.968574    Biso  1.000000 Si
   Si69        1.0     0.687298     0.616091     0.305875    Biso  1.000000 Si
   Si70        1.0     0.423759     0.228640     0.150302    Biso  1.000000 Si
   Si71        1.0     0.308710     0.256395     0.301729    Biso  1.000000 Si
   Si72        1.0     0.280490     0.221239     0.518508    Biso  1.000000 Si
   Si73        1.0     0.122388     0.220462     0.515443    Biso  1.000000 Si
   Si74        1.0     0.070663     0.255070     0.303962    Biso  1.000000 Si
   Si75        1.0     0.185821     0.228279     0.162113    Biso  1.000000 Si
   Si76        1.0     0.422351     0.457100     0.165020    Biso  1.000000 Si
   Si77        1.0     0.306751     0.414295     0.309259    Biso  1.000000 Si
   Si78        1.0     0.266687     0.458952     0.521435    Biso  1.000000 Si
   Si79        1.0     0.112956     0.459907     0.511807    Biso  1.000000 Si
   Si80        1.0     0.065703     0.412875     0.301662    Biso  1.000000 Si
   Si81        1.0     0.185232     0.454173     0.172611    Biso  1.000000 Si
   Si82        1.0     0.075574     0.343007     0.648724    Biso  1.000000 Si
   Si83        1.0     0.190705     0.313165     0.796487    Biso  1.000000 Si
   Si84        1.0     0.219395     0.347158     0.016841    Biso  1.000000 Si
   Si85        1.0     0.377965     0.349801     0.013373    Biso  1.000000 Si
   Si86        1.0     0.313908     0.342755     0.657240    Biso  1.000000 Si
   Si87        1.0     0.077182     0.112690     0.668136    Biso  1.000000 Si
   Si88        1.0     0.191238     0.154350     0.811018    Biso  1.000000 Si
   Si89        1.0     0.231049     0.113796     0.026287    Biso  1.000000 Si
   Si90        1.0     0.384399     0.112528     0.015731    Biso  1.000000 Si
   Si91        1.0     0.431493     0.156502     0.801502    Biso  1.000000 Si
   Si92        1.0     0.312264     0.111443     0.675560    Biso  1.000000 Si
   Si93        1.0     0.572501     0.815047     0.173719    Biso  1.000000 Si
   Si94        1.0     0.567866     0.656919     0.178776    Biso  1.000000 Si
   Si95        1.0     0.427663     0.315220     0.799281    Biso  1.000000 Si
   Al1         1.0     0.427495     0.753700     0.797849    Biso  1.000000 Al
   O1          1.0     0.370252     0.845017     0.230493    Biso  1.000000 O
   O2          1.0     0.316367     0.844433     0.406784    Biso  1.000000 O
   O3          1.0     0.199662     0.855886     0.490145    Biso  1.000000 O
   O4          1.0     0.082466     0.847438     0.408025    Biso  1.000000 O
   O5          1.0     0.114972     0.848898     0.216992    Biso  1.000000 O
   O6          1.0     0.241133     0.831499     0.249466    Biso  1.000000 O
   O7          1.0     0.370865     0.615244     0.262008    Biso  1.000000 O
   O8          1.0     0.309331     0.632408     0.427452    Biso  1.000000 O
   O9          1.0     0.188695     0.632778     0.498720    Biso  1.000000 O
   O10         1.0     0.075705     0.622718     0.405913    Biso  1.000000 O
   O11         1.0     0.113555     0.623665     0.217966    Biso  1.000000 O
   O12         1.0     0.239944     0.632348     0.262759    Biso  1.000000 O
   O13         1.0     0.320273     0.733195     0.300810    Biso  1.000000 O
   O14         1.0     0.080953     0.736166     0.305380    Biso  1.000000 O
   O15         1.0     0.425124     0.911770     0.083780    Biso  1.000000 O
   O16         1.0     0.413502     0.780250     0.069949    Biso  1.000000 O
   O17         1.0     0.392689     0.650776     0.075015    Biso  1.000000 O
   O18         1.0     0.199550     0.913789     0.108339    Biso  1.000000 O
   O19         1.0     0.186046     0.782869     0.087090    Biso  1.000000 O
   O20         1.0     0.200672     0.652037     0.076991    Biso  1.000000 O
   O21         1.0     0.992739     0.832140     0.270601    Biso  1.000000 O
   O22         1.0     0.989257     0.645194     0.267191    Biso  1.000000 O
   O23         1.0     0.130943     0.722174     0.743695    Biso  1.000000 O
   O24         1.0     0.188737     0.722616     0.915310    Biso  1.000000 O
   O25         1.0     0.298100     0.732859     0.022885    Biso  1.000000 O
   O26         1.0     0.401799     0.711376     0.902921    Biso  1.000000 O
   O27         1.0     0.383299     0.730538     0.692771    Biso  1.000000 O
   O28         1.0     0.260269     0.743646     0.755881    Biso  1.000000 O
   O29         1.0     0.131658     0.950991     0.749890    Biso  1.000000 O
   O30         1.0     0.193034     0.945805     0.918267    Biso  1.000000 O
   O31         1.0     0.308393     0.937216     0.006943    Biso  1.000000 O
   O32         1.0     0.416176     0.958487     0.899729    Biso  1.000000 O
   O33         1.0     0.387302     0.944105     0.711319    Biso  1.000000 O
   O34         1.0     0.260505     0.927898     0.752494    Biso  1.000000 O
   O35         1.0     0.176268     0.835787     0.814310    Biso  1.000000 O
   O36         1.0     0.421804     0.838089     0.819530    Biso  1.000000 O
   O37         1.0     0.076829     0.659736     0.593018    Biso  1.000000 O
   O38         1.0     0.105010     0.788254     0.579143    Biso  1.000000 O
   O39         1.0     0.097845     0.920009     0.565491    Biso  1.000000 O
   O40         1.0     0.290672     0.655981     0.617377    Biso  1.000000 O
   O41         1.0     0.291197     0.783553     0.575433    Biso  1.000000 O
   O42         1.0     0.303320     0.916132     0.567829    Biso  1.000000 O
   O43         1.0     0.508965     0.728759     0.765441    Biso  1.000000 O
   O44         1.0     0.509207     0.931062     0.770284    Biso  1.000000 O
   O45         1.0     0.631271     0.344489     0.746110    Biso  1.000000 O
   O46         1.0     0.691738     0.354121     0.575779    Biso  1.000000 O
   O47         1.0     0.798335     0.342426     0.462399    Biso  1.000000 O
   O48         1.0     0.902736     0.352343     0.579511    Biso  1.000000 O
   O49         1.0     0.886584     0.340609     0.772665    Biso  1.000000 O
   O50         1.0     0.760326     0.326129     0.735922    Biso  1.000000 O
   O51         1.0     0.632954     0.123827     0.733998    Biso  1.000000 O
   O52         1.0     0.692048     0.123560     0.562962    Biso  1.000000 O
   O53         1.0     0.807059     0.133896     0.472989    Biso  1.000000 O
   O54         1.0     0.914758     0.117028     0.579337    Biso  1.000000 O
   O55         1.0     0.887275     0.128180     0.770233    Biso  1.000000 O
   O56         1.0     0.762329     0.143229     0.724681    Biso  1.000000 O
   O57         1.0     0.680068     0.236085     0.661890    Biso  1.000000 O
   O58         1.0     0.917209     0.235118     0.663539    Biso  1.000000 O
   O59         1.0     0.575795     0.413368     0.889404    Biso  1.000000 O
   O60         1.0     0.587565     0.283507     0.909841    Biso  1.000000 O
   O61         1.0     0.598556     0.152379     0.918601    Biso  1.000000 O
   O62         1.0     0.801350     0.414647     0.867545    Biso  1.000000 O
   O63         1.0     0.810471     0.285942     0.907671    Biso  1.000000 O
   O64         1.0     0.800637     0.153672     0.911998    Biso  1.000000 O
   O65         1.0     0.004493     0.331436     0.699926    Biso  1.000000 O
   O66         1.0     0.008822     0.145483     0.707436    Biso  1.000000 O
   O67         1.0     0.866934     0.225989     0.248271    Biso  1.000000 O
   O68         1.0     0.806261     0.221808     0.077138    Biso  1.000000 O
   O69         1.0     0.699803     0.230098     0.963524    Biso  1.000000 O
   O70         1.0     0.596109     0.221339     0.081827    Biso  1.000000 O
   O71         1.0     0.611957     0.228044     0.275962    Biso  1.000000 O
   O72         1.0     0.737905     0.245051     0.238920    Biso  1.000000 O
   O73         1.0     0.865658     0.452787     0.231071    Biso  1.000000 O
   O74         1.0     0.808261     0.443691     0.058714    Biso  1.000000 O
   O75         1.0     0.692721     0.435262     0.970760    Biso  1.000000 O
   O76         1.0     0.584476     0.450771     0.077051    Biso  1.000000 O
   O77         1.0     0.611329     0.447738     0.269027    Biso  1.000000 O
   O78         1.0     0.736523     0.433294     0.220795    Biso  1.000000 O
   O79         1.0     0.819211     0.336852     0.172075    Biso  1.000000 O
   O80         1.0     0.583768     0.336289     0.172700    Biso  1.000000 O
   O81         1.0     0.923371     0.159578     0.393892    Biso  1.000000 O
   O82         1.0     0.911217     0.290207     0.407867    Biso  1.000000 O
   O83         1.0     0.897894     0.421341     0.415803    Biso  1.000000 O
   O84         1.0     0.697977     0.157126     0.373576    Biso  1.000000 O
   O85         1.0     0.686906     0.286901     0.408527    Biso  1.000000 O
   O86         1.0     0.698172     0.419362     0.408823    Biso  1.000000 O
   O87         1.0     0.494385     0.241011     0.202455    Biso  1.000000 O
   O88         1.0     0.490729     0.426332     0.208448    Biso  1.000000 O
   O89         1.0     0.637971     0.720645     0.748906    Biso  1.000000 O
   O90         1.0     0.692562     0.722296     0.574888    Biso  1.000000 O
   O91         1.0     0.799861     0.731012     0.462778    Biso  1.000000 O
   O92         1.0     0.906066     0.721047     0.575815    Biso  1.000000 O
   O93         1.0     0.890746     0.726023     0.769901    Biso  1.000000 O
   O94         1.0     0.765660     0.745486     0.731916    Biso  1.000000 O
   O95         1.0     0.632429     0.954350     0.723698    Biso  1.000000 O
   O96         1.0     0.691972     0.938550     0.553899    Biso  1.000000 O
   O97         1.0     0.808261     0.935758     0.466752    Biso  1.000000 O
   O98         1.0     0.915664     0.951241     0.574151    Biso  1.000000 O
   O99         1.0     0.886227     0.946813     0.765492    Biso  1.000000 O
   O100        1.0     0.761569     0.933575     0.718388    Biso  1.000000 O
   O101        1.0     0.678787     0.835970     0.675112    Biso  1.000000 O
   O102        1.0     0.914377     0.836382     0.667674    Biso  1.000000 O
   O103        1.0     0.576788     0.657367     0.891888    Biso  1.000000 O
   O104        1.0     0.585615     0.788443     0.900536    Biso  1.000000 O
   O105        1.0     0.603833     0.918601     0.908032    Biso  1.000000 O
   O106        1.0     0.802349     0.656153     0.866779    Biso  1.000000 O
   O107        1.0     0.815871     0.785383     0.903262    Biso  1.000000 O
   O108        1.0     0.799163     0.917258     0.905605    Biso  1.000000 O
   O109        1.0     0.007703     0.745907     0.694608    Biso  1.000000 O
   O110        1.0     0.007502     0.926290     0.707112    Biso  1.000000 O
   O111        1.0     0.865963     0.847226     0.242938    Biso  1.000000 O
   O112        1.0     0.805402     0.849613     0.071305    Biso  1.000000 O
   O113        1.0     0.701076     0.835796     0.953009    Biso  1.000000 O
   O114        1.0     0.598805     0.849847     0.072980    Biso  1.000000 O
   O115        1.0     0.613575     0.842000     0.268149    Biso  1.000000 O
   O116        1.0     0.738475     0.822269     0.232946    Biso  1.000000 O
   O117        1.0     0.865324     0.617860     0.229900    Biso  1.000000 O
   O118        1.0     0.808575     0.626128     0.057992    Biso  1.000000 O
   O119        1.0     0.693572     0.634763     0.969755    Biso  1.000000 O
   O120        1.0     0.586856     0.616944     0.078948    Biso  1.000000 O
   O121        1.0     0.612187     0.628569     0.269803    Biso  1.000000 O
   O122        1.0     0.737341     0.641935     0.220801    Biso  1.000000 O
   O123        1.0     0.823178     0.734534     0.165688    Biso  1.000000 O
   O124        1.0     0.582356     0.735162     0.163090    Biso  1.000000 O
   O125        1.0     0.924833     0.913812     0.385885    Biso  1.000000 O
   O126        1.0     0.911041     0.784008     0.404020    Biso  1.000000 O
   O127        1.0     0.899543     0.652653     0.412012    Biso  1.000000 O
   O128        1.0     0.700494     0.915017     0.361994    Biso  1.000000 O
   O129        1.0     0.688350     0.787220     0.406182    Biso  1.000000 O
   O130        1.0     0.699417     0.655056     0.409390    Biso  1.000000 O
   O131        1.0     0.496656     0.833529     0.195174    Biso  1.000000 O
   O132        1.0     0.491344     0.643841     0.206261    Biso  1.000000 O
   O133        1.0     0.367545     0.226969     0.234634    Biso  1.000000 O
   O134        1.0     0.309272     0.218070     0.406953    Biso  1.000000 O
   O135        1.0     0.201310     0.230078     0.516124    Biso  1.000000 O
   O136        1.0     0.095037     0.217303     0.403397    Biso  1.000000 O
   O137        1.0     0.112886     0.229788     0.209969    Biso  1.000000 O
   O138        1.0     0.238553     0.245044     0.248241    Biso  1.000000 O
   O139        1.0     0.366385     0.449054     0.249307    Biso  1.000000 O
   O140        1.0     0.305621     0.447435     0.418168    Biso  1.000000 O
   O141        1.0     0.190019     0.437868     0.508469    Biso  1.000000 O
   O142        1.0     0.082183     0.453129     0.402199    Biso  1.000000 O
   O143        1.0     0.110996     0.440509     0.211982    Biso  1.000000 O
   O144        1.0     0.236923     0.426891     0.254803    Biso  1.000000 O
   O145        1.0     0.320076     0.335357     0.318947    Biso  1.000000 O
   O146        1.0     0.079892     0.334586     0.319566    Biso  1.000000 O
   O147        1.0     0.424998     0.158038     0.093368    Biso  1.000000 O
   O148        1.0     0.410998     0.287792     0.071113    Biso  1.000000 O
   O149        1.0     0.400806     0.418980     0.064620    Biso  1.000000 O
   O150        1.0     0.198693     0.155032     0.116840    Biso  1.000000 O
   O151        1.0     0.189853     0.283483     0.075041    Biso  1.000000 O
   O152        1.0     0.196282     0.415849     0.068705    Biso  1.000000 O
   O153        1.0     0.994379     0.237697     0.280647    Biso  1.000000 O
   O154        1.0     0.988979     0.425131     0.273532    Biso  1.000000 O
   O155        1.0     0.131399     0.346236     0.733679    Biso  1.000000 O
   O156        1.0     0.191750     0.346929     0.904911    Biso  1.000000 O
   O157        1.0     0.298932     0.342503     0.018010    Biso  1.000000 O
   O158        1.0     0.402970     0.350724     0.900205    Biso  1.000000 O
   O159        1.0     0.386479     0.344580     0.706550    Biso  1.000000 O
   O160        1.0     0.260523     0.327423     0.743013    Biso  1.000000 O
   O161        1.0     0.131282     0.116976     0.755620    Biso  1.000000 O
   O162        1.0     0.191881     0.130746     0.925080    Biso  1.000000 O
   O163        1.0     0.307694     0.135856     0.014251    Biso  1.000000 O
   O164        1.0     0.414799     0.121924     0.906307    Biso  1.000000 O
   O165        1.0     0.386695     0.124268     0.714842    Biso  1.000000 O
   O166        1.0     0.261234     0.135965     0.760563    Biso  1.000000 O
   O167        1.0     0.179061     0.233816     0.804460    Biso  1.000000 O
   O168        1.0     0.416835     0.235680     0.808470    Biso  1.000000 O
   O169        1.0     0.073993     0.412997     0.589267    Biso  1.000000 O
   O170        1.0     0.089237     0.283085     0.571575    Biso  1.000000 O
   O171        1.0     0.102932     0.151662     0.570353    Biso  1.000000 O
   O172        1.0     0.300065     0.414808     0.607733    Biso  1.000000 O
   O173        1.0     0.312035     0.285351     0.573491    Biso  1.000000 O
   O174        1.0     0.300204     0.153161     0.574592    Biso  1.000000 O
   O175        1.0     0.504387     0.332868     0.779180    Biso  1.000000 O
   O176        1.0     0.508498     0.144068     0.775633    Biso  1.000000 O
   O177        1.0     0.432844     0.534819     0.139817    Biso  1.000000 O
   O178        1.0     0.196547     0.532565     0.153329    Biso  1.000000 O
   O179        1.0     0.273054     0.536568     0.551148    Biso  1.000000 O
   O180        1.0     0.105118     0.536393     0.547259    Biso  1.000000 O
   O181        1.0     0.065372     0.035714     0.638768    Biso  1.000000 O
   O182        1.0     0.300745     0.033733     0.651274    Biso  1.000000 O
   O183        1.0     0.225194     0.035533     0.051965    Biso  1.000000 O
   O184        1.0     0.390820     0.035838     0.050333    Biso  1.000000 O
   O185        1.0     0.570448     0.036285     0.844743    Biso  1.000000 O
   O186        1.0     0.800266     0.036681     0.827033    Biso  1.000000 O
   O187        1.0     0.724697     0.034767     0.427769    Biso  1.000000 O
   O188        1.0     0.890923     0.035917     0.430804    Biso  1.000000 O
   O189        1.0     0.933519     0.536092     0.342076    Biso  1.000000 O
   O190        1.0     0.697999     0.537506     0.328481    Biso  1.000000 O
   O191        1.0     0.774946     0.535117     0.926225    Biso  1.000000 O
   O192        1.0     0.610674     0.535010     0.932454    Biso  1.000000 O
   H1          1.0     0.506757     0.674054     0.666921    Biso  1.000000 H
   H2          1.0     0.416088     0.560396     0.444812    Biso  1.000000 H
   H3          1.0     0.411224     0.645686     0.582405    Biso  1.000000 H
   H4          1.0     0.610277     0.628944     0.636422    Biso  1.000000 H
   H5          1.0     0.624186     0.541779     0.504318    Biso  1.000000 H
   H6          1.0     0.525325     0.508050     0.405859    Biso  1.000000 H
   C1          1.0     0.520857     0.544676     0.464646    Biso  1.000000 C
   C2          1.0     0.460128     0.573517     0.485715    Biso  1.000000 C
   C3          1.0     0.456074     0.620589     0.560074    Biso  1.000000 C
   C4          1.0     0.569683     0.610757     0.592047    Biso  1.000000 C
   C5          1.0     0.576155     0.563247     0.518906    Biso  1.000000 C
   N1          1.0     0.510451     0.638021     0.610404    Biso  1.000000 N
