
#======================================================================
# CRYSTAL DATA
#----------------------------------------------------------------------
data_VESTA_phase_1

_chemical_name_common                  'ï¿½'
_cell_length_a                         20.382000
_cell_length_b                         20.165199
_cell_length_c                         13.574200
_cell_angle_alpha                      90
_cell_angle_beta                       90
_cell_angle_gamma                      90
_cell_volume                           5579.086950
_space_group_name_H-M_alt              'P 1'
_space_group_IT_number                 1

loop_
_space_group_symop_operation_xyz
   'x, y, z'

loop_
   _atom_site_label
   _atom_site_occupancy
   _atom_site_fract_x
   _atom_site_fract_y
   _atom_site_fract_z
   _atom_site_adp_type
   _atom_site_B_iso_or_equiv
   _atom_site_type_symbol
   Si1         1.0     0.424272     0.841140     0.144471    Biso  1.000000 Si
   Si2         1.0     0.307055     0.813348     0.290247    Biso  1.000000 Si
   Si3         1.0     0.280957     0.848946     0.510676    Biso  1.000000 Si
   Si4         1.0     0.122427     0.850191     0.512889    Biso  1.000000 Si
   Si5         1.0     0.071526     0.813837     0.300417    Biso  1.000000 Si
   Si6         1.0     0.182417     0.839876     0.151084    Biso  1.000000 Si
   Si7         1.0     0.422320     0.611408     0.164290    Biso  1.000000 Si
   Si8         1.0     0.306273     0.655103     0.303730    Biso  1.000000 Si
   Si9         1.0     0.265194     0.612479     0.517049    Biso  1.000000 Si
   Si10        1.0     0.112113     0.611242     0.512697    Biso  1.000000 Si
   Si11        1.0     0.064645     0.656075     0.301770    Biso  1.000000 Si
   Si12        1.0     0.183261     0.612136     0.171032    Biso  1.000000 Si
   Si13        1.0     0.078335     0.728705     0.650789    Biso  1.000000 Si
   Si14        1.0     0.196407     0.757757     0.796574    Biso  1.000000 Si
   Si15        1.0     0.218830     0.719502     0.016937    Biso  1.000000 Si
   Si16        1.0     0.375563     0.718361     0.013736    Biso  1.000000 Si
   Si17        1.0     0.315383     0.728301     0.649099    Biso  1.000000 Si
   Si18        1.0     0.077014     0.956816     0.664006    Biso  1.000000 Si
   Si19        1.0     0.195037     0.915463     0.805228    Biso  1.000000 Si
   Si20        1.0     0.231408     0.957554     0.020382    Biso  1.000000 Si
   Si21        1.0     0.384706     0.958419     0.010318    Biso  1.000000 Si
   Si22        1.0     0.430796     0.916620     0.797660    Biso  1.000000 Si
   Si23        1.0     0.315511     0.957669     0.666220    Biso  1.000000 Si
   Si24        1.0     0.574407     0.342268     0.834300    Biso  1.000000 Si
   Si25        1.0     0.690340     0.313729     0.684793    Biso  1.000000 Si
   Si26        1.0     0.718263     0.348863     0.466696    Biso  1.000000 Si
   Si27        1.0     0.876518     0.349974     0.468716    Biso  1.000000 Si
   Si28        1.0     0.926962     0.313479     0.680461    Biso  1.000000 Si
   Si29        1.0     0.813756     0.340721     0.826006    Biso  1.000000 Si
   Si30        1.0     0.576010     0.112899     0.820238    Biso  1.000000 Si
   Si31        1.0     0.691569     0.155650     0.675474    Biso  1.000000 Si
   Si32        1.0     0.729440     0.111199     0.462532    Biso  1.000000 Si
   Si33        1.0     0.882885     0.110323     0.470957    Biso  1.000000 Si
   Si34        1.0     0.932045     0.155675     0.680902    Biso  1.000000 Si
   Si35        1.0     0.813270     0.114516     0.810762    Biso  1.000000 Si
   Si36        1.0     0.922837     0.227561     0.335142    Biso  1.000000 Si
   Si37        1.0     0.806664     0.257075     0.187501    Biso  1.000000 Si
   Si38        1.0     0.778835     0.221352     0.968008    Biso  1.000000 Si
   Si39        1.0     0.620449     0.220915     0.970615    Biso  1.000000 Si
   Si40        1.0     0.570967     0.255475     0.184618    Biso  1.000000 Si
   Si41        1.0     0.683531     0.228213     0.328609    Biso  1.000000 Si
   Si42        1.0     0.921585     0.457618     0.317858    Biso  1.000000 Si
   Si43        1.0     0.806658     0.415773     0.173928    Biso  1.000000 Si
   Si44        1.0     0.768975     0.457247     0.958864    Biso  1.000000 Si
   Si45        1.0     0.615725     0.457721     0.969517    Biso  1.000000 Si
   Si46        1.0     0.567123     0.413482     0.182583    Biso  1.000000 Si
   Si47        1.0     0.685396     0.457765     0.309321    Biso  1.000000 Si
   Si48        1.0     0.576319     0.727079     0.836768    Biso  1.000000 Si
   Si49        1.0     0.693246     0.755827     0.690055    Biso  1.000000 Si
   Si50        1.0     0.719800     0.721048     0.470902    Biso  1.000000 Si
   Si51        1.0     0.878498     0.719381     0.472473    Biso  1.000000 Si
   Si52        1.0     0.930403     0.755722     0.684072    Biso  1.000000 Si
   Si53        1.0     0.817041     0.729364     0.826503    Biso  1.000000 Si
   Si54        1.0     0.576693     0.957733     0.819202    Biso  1.000000 Si
   Si55        1.0     0.691963     0.914187     0.676682    Biso  1.000000 Si
   Si56        1.0     0.729415     0.955828     0.460791    Biso  1.000000 Si
   Si57        1.0     0.883054     0.957431     0.469863    Biso  1.000000 Si
   Si58        1.0     0.931886     0.913794     0.682331    Biso  1.000000 Si
   Si59        1.0     0.813434     0.957284     0.810349    Biso  1.000000 Si
   Si60        1.0     0.923350     0.841072     0.334792    Biso  1.000000 Si
   Si61        1.0     0.807463     0.812712     0.185472    Biso  1.000000 Si
   Si62        1.0     0.780223     0.849524     0.966553    Biso  1.000000 Si
   Si63        1.0     0.621897     0.849422     0.970074    Biso  1.000000 Si
   Si64        1.0     0.684353     0.839861     0.326904    Biso  1.000000 Si
   Si65        1.0     0.921376     0.612763     0.319126    Biso  1.000000 Si
   Si66        1.0     0.805962     0.654585     0.175284    Biso  1.000000 Si
   Si67        1.0     0.769141     0.612547     0.961000    Biso  1.000000 Si
   Si68        1.0     0.616041     0.610985     0.973019    Biso  1.000000 Si
   Si69        1.0     0.685231     0.614590     0.312551    Biso  1.000000 Si
   Si70        1.0     0.423819     0.226715     0.149478    Biso  1.000000 Si
   Si71        1.0     0.307366     0.256188     0.295524    Biso  1.000000 Si
   Si72        1.0     0.279731     0.223354     0.515617    Biso  1.000000 Si
   Si73        1.0     0.121853     0.220426     0.515583    Biso  1.000000 Si
   Si74        1.0     0.070725     0.254646     0.303801    Biso  1.000000 Si
   Si75        1.0     0.183234     0.228536     0.156979    Biso  1.000000 Si
   Si76        1.0     0.421983     0.456469     0.164941    Biso  1.000000 Si
   Si77        1.0     0.306713     0.414035     0.306840    Biso  1.000000 Si
   Si78        1.0     0.267098     0.456834     0.521366    Biso  1.000000 Si
   Si79        1.0     0.113794     0.458150     0.513421    Biso  1.000000 Si
   Si80        1.0     0.066111     0.412565     0.302513    Biso  1.000000 Si
   Si81        1.0     0.184475     0.455017     0.171454    Biso  1.000000 Si
   Si82        1.0     0.074228     0.341674     0.649071    Biso  1.000000 Si
   Si83        1.0     0.191091     0.311988     0.795602    Biso  1.000000 Si
   Si84        1.0     0.218137     0.347262     0.015535    Biso  1.000000 Si
   Si85        1.0     0.376376     0.348276     0.015058    Biso  1.000000 Si
   Si86        1.0     0.314501     0.342155     0.655545    Biso  1.000000 Si
   Si87        1.0     0.077579     0.111919     0.667000    Biso  1.000000 Si
   Si88        1.0     0.192221     0.153434     0.809709    Biso  1.000000 Si
   Si89        1.0     0.231094     0.112377     0.026007    Biso  1.000000 Si
   Si90        1.0     0.384218     0.110986     0.015349    Biso  1.000000 Si
   Si91        1.0     0.430438     0.154894     0.800903    Biso  1.000000 Si
   Si92        1.0     0.312538     0.112606     0.670405    Biso  1.000000 Si
   Si93        1.0     0.571271     0.813543     0.181660    Biso  1.000000 Si
   Si94        1.0     0.566996     0.655504     0.183313    Biso  1.000000 Si
   Si95        1.0     0.426332     0.313598     0.801279    Biso  1.000000 Si
   Al1         1.0     0.426427     0.755836     0.798308    Biso  1.000000 Al
   O1          1.0     0.367259     0.845151     0.228221    Biso  1.000000 O
   O2          1.0     0.303002     0.851054     0.395736    Biso  1.000000 O
   O3          1.0     0.201501     0.845488     0.520487    Biso  1.000000 O
   O4          1.0     0.098876     0.850186     0.398963    Biso  1.000000 O
   O5          1.0     0.111121     0.840848     0.204816    Biso  1.000000 O
   O6          1.0     0.238030     0.823260     0.233053    Biso  1.000000 O
   O7          1.0     0.366715     0.617408     0.249845    Biso  1.000000 O
   O8          1.0     0.305755     0.626675     0.415928    Biso  1.000000 O
   O9          1.0     0.188850     0.632734     0.500346    Biso  1.000000 O
   O10         1.0     0.076806     0.618861     0.406428    Biso  1.000000 O
   O11         1.0     0.110061     0.623389     0.216149    Biso  1.000000 O
   O12         1.0     0.236771     0.639191     0.250737    Biso  1.000000 O
   O13         1.0     0.319985     0.734277     0.306464    Biso  1.000000 O
   O14         1.0     0.081969     0.734208     0.312739    Biso  1.000000 O
   O15         1.0     0.426439     0.910453     0.083172    Biso  1.000000 O
   O16         1.0     0.412402     0.779484     0.070428    Biso  1.000000 O
   O17         1.0     0.400666     0.649227     0.065113    Biso  1.000000 O
   O18         1.0     0.194571     0.912348     0.102397    Biso  1.000000 O
   O19         1.0     0.182145     0.783240     0.065956    Biso  1.000000 O
   O20         1.0     0.191163     0.651292     0.067064    Biso  1.000000 O
   O21         1.0     0.994429     0.830684     0.283386    Biso  1.000000 O
   O22         1.0     0.987749     0.645642     0.272755    Biso  1.000000 O
   O23         1.0     0.135088     0.727691     0.734307    Biso  1.000000 O
   O24         1.0     0.201537     0.717655     0.900141    Biso  1.000000 O
   O25         1.0     0.296970     0.725670     0.036995    Biso  1.000000 O
   O26         1.0     0.392000     0.716299     0.899625    Biso  1.000000 O
   O27         1.0     0.389414     0.722667     0.690289    Biso  1.000000 O
   O28         1.0     0.264099     0.748998     0.735323    Biso  1.000000 O
   O29         1.0     0.133775     0.947918     0.746278    Biso  1.000000 O
   O30         1.0     0.196598     0.949267     0.913529    Biso  1.000000 O
   O31         1.0     0.307947     0.934954     0.012556    Biso  1.000000 O
   O32         1.0     0.413157     0.956672     0.899329    Biso  1.000000 O
   O33         1.0     0.389710     0.951782     0.707852    Biso  1.000000 O
   O34         1.0     0.263465     0.930014     0.747862    Biso  1.000000 O
   O35         1.0     0.183940     0.836117     0.816822    Biso  1.000000 O
   O36         1.0     0.412966     0.840165     0.806569    Biso  1.000000 O
   O37         1.0     0.076786     0.657527     0.594443    Biso  1.000000 O
   O38         1.0     0.090555     0.786972     0.569869    Biso  1.000000 O
   O39         1.0     0.097005     0.918794     0.562616    Biso  1.000000 O
   O40         1.0     0.296473     0.655280     0.605658    Biso  1.000000 O
   O41         1.0     0.311823     0.782361     0.559713    Biso  1.000000 O
   O42         1.0     0.307615     0.915702     0.564346    Biso  1.000000 O
   O43         1.0     0.508750     0.735164     0.779405    Biso  1.000000 O
   O44         1.0     0.508805     0.929042     0.774482    Biso  1.000000 O
   O45         1.0     0.629674     0.343713     0.748130    Biso  1.000000 O
   O46         1.0     0.692528     0.353019     0.579931    Biso  1.000000 O
   O47         1.0     0.797430     0.341124     0.462675    Biso  1.000000 O
   O48         1.0     0.900405     0.351497     0.582433    Biso  1.000000 O
   O49         1.0     0.885872     0.338540     0.775822    Biso  1.000000 O
   O50         1.0     0.758941     0.325420     0.742302    Biso  1.000000 O
   O51         1.0     0.632495     0.121958     0.737046    Biso  1.000000 O
   O52         1.0     0.691548     0.123508     0.566144    Biso  1.000000 O
   O53         1.0     0.806112     0.132900     0.474739    Biso  1.000000 O
   O54         1.0     0.914050     0.116043     0.580451    Biso  1.000000 O
   O55         1.0     0.887650     0.127699     0.771552    Biso  1.000000 O
   O56         1.0     0.761858     0.142192     0.728544    Biso  1.000000 O
   O57         1.0     0.679486     0.235078     0.666533    Biso  1.000000 O
   O58         1.0     0.917477     0.234142     0.664547    Biso  1.000000 O
   O59         1.0     0.574896     0.413491     0.890669    Biso  1.000000 O
   O60         1.0     0.587653     0.283846     0.914171    Biso  1.000000 O
   O61         1.0     0.596551     0.152260     0.920292    Biso  1.000000 O
   O62         1.0     0.802584     0.414326     0.871496    Biso  1.000000 O
   O63         1.0     0.810312     0.285669     0.913287    Biso  1.000000 O
   O64         1.0     0.802187     0.153160     0.914709    Biso  1.000000 O
   O65         1.0     0.003314     0.331512     0.701344    Biso  1.000000 O
   O66         1.0     0.009011     0.143868     0.706857    Biso  1.000000 O
   O67         1.0     0.866875     0.226030     0.250266    Biso  1.000000 O
   O68         1.0     0.804050     0.220166     0.081355    Biso  1.000000 O
   O69         1.0     0.699511     0.227708     0.963524    Biso  1.000000 O
   O70         1.0     0.597015     0.220101     0.084543    Biso  1.000000 O
   O71         1.0     0.611219     0.227149     0.278727    Biso  1.000000 O
   O72         1.0     0.737711     0.245219     0.244548    Biso  1.000000 O
   O73         1.0     0.865571     0.451656     0.233360    Biso  1.000000 O
   O74         1.0     0.806891     0.444044     0.062213    Biso  1.000000 O
   O75         1.0     0.692382     0.434546     0.970726    Biso  1.000000 O
   O76         1.0     0.584901     0.449346     0.078943    Biso  1.000000 O
   O77         1.0     0.610352     0.446472     0.271094    Biso  1.000000 O
   O78         1.0     0.736118     0.432687     0.224885    Biso  1.000000 O
   O79         1.0     0.818094     0.336249     0.173384    Biso  1.000000 O
   O80         1.0     0.583193     0.335016     0.174885    Biso  1.000000 O
   O81         1.0     0.922370     0.157663     0.394618    Biso  1.000000 O
   O82         1.0     0.910776     0.288289     0.411880    Biso  1.000000 O
   O83         1.0     0.897812     0.419679     0.417708    Biso  1.000000 O
   O84         1.0     0.696620     0.155647     0.376074    Biso  1.000000 O
   O85         1.0     0.685101     0.284809     0.414089    Biso  1.000000 O
   O86         1.0     0.696103     0.417179     0.411749    Biso  1.000000 O
   O87         1.0     0.493958     0.239281     0.203060    Biso  1.000000 O
   O88         1.0     0.489937     0.424853     0.208040    Biso  1.000000 O
   O89         1.0     0.637841     0.722484     0.759409    Biso  1.000000 O
   O90         1.0     0.691708     0.719258     0.582905    Biso  1.000000 O
   O91         1.0     0.799221     0.726480     0.470381    Biso  1.000000 O
   O92         1.0     0.905124     0.718348     0.584811    Biso  1.000000 O
   O93         1.0     0.890304     0.728032     0.779193    Biso  1.000000 O
   O94         1.0     0.765399     0.744965     0.738317    Biso  1.000000 O
   O95         1.0     0.633807     0.951281     0.735947    Biso  1.000000 O
   O96         1.0     0.691953     0.941538     0.564243    Biso  1.000000 O
   O97         1.0     0.806321     0.934443     0.471516    Biso  1.000000 O
   O98         1.0     0.913428     0.950734     0.579695    Biso  1.000000 O
   O99         1.0     0.887878     0.944408     0.771385    Biso  1.000000 O
   O100        1.0     0.762709     0.930204     0.726986    Biso  1.000000 O
   O101        1.0     0.679373     0.834672     0.677104    Biso  1.000000 O
   O102        1.0     0.917712     0.834915     0.671130    Biso  1.000000 O
   O103        1.0     0.574960     0.656374     0.896969    Biso  1.000000 O
   O104        1.0     0.588489     0.786228     0.916508    Biso  1.000000 O
   O105        1.0     0.598410     0.918157     0.918734    Biso  1.000000 O
   O106        1.0     0.802698     0.657153     0.875392    Biso  1.000000 O
   O107        1.0     0.813284     0.786486     0.910708    Biso  1.000000 O
   O108        1.0     0.802177     0.918688     0.914284    Biso  1.000000 O
   O109        1.0     0.007572     0.740431     0.703152    Biso  1.000000 O
   O110        1.0     0.008764     0.926539     0.707823    Biso  1.000000 O
   O111        1.0     0.867369     0.842703     0.249973    Biso  1.000000 O
   O112        1.0     0.805594     0.850650     0.079977    Biso  1.000000 O
   O113        1.0     0.701094     0.842015     0.961980    Biso  1.000000 O
   O114        1.0     0.600077     0.851320     0.085078    Biso  1.000000 O
   O115        1.0     0.611532     0.837269     0.278841    Biso  1.000000 O
   O116        1.0     0.738183     0.823882     0.241889    Biso  1.000000 O
   O117        1.0     0.863473     0.618947     0.237841    Biso  1.000000 O
   O118        1.0     0.806583     0.623155     0.065455    Biso  1.000000 O
   O119        1.0     0.692628     0.634226     0.974358    Biso  1.000000 O
   O120        1.0     0.586548     0.615204     0.084033    Biso  1.000000 O
   O121        1.0     0.610210     0.627682     0.275841    Biso  1.000000 O
   O122        1.0     0.735167     0.640829     0.227556    Biso  1.000000 O
   O123        1.0     0.818963     0.733734     0.169068    Biso  1.000000 O
   O124        1.0     0.580579     0.733814     0.166748    Biso  1.000000 O
   O125        1.0     0.923488     0.911406     0.393056    Biso  1.000000 O
   O126        1.0     0.910369     0.781443     0.413163    Biso  1.000000 O
   O127        1.0     0.900341     0.650124     0.420642    Biso  1.000000 O
   O128        1.0     0.696063     0.913229     0.372734    Biso  1.000000 O
   O129        1.0     0.689160     0.784875     0.414429    Biso  1.000000 O
   O130        1.0     0.697251     0.652705     0.416468    Biso  1.000000 O
   O131        1.0     0.494654     0.831564     0.199520    Biso  1.000000 O
   O132        1.0     0.490291     0.641679     0.210311    Biso  1.000000 O
   O133        1.0     0.366664     0.223463     0.232564    Biso  1.000000 O
   O134        1.0     0.304273     0.219792     0.402014    Biso  1.000000 O
   O135        1.0     0.200516     0.232034     0.520889    Biso  1.000000 O
   O136        1.0     0.097375     0.217072     0.402087    Biso  1.000000 O
   O137        1.0     0.111294     0.229340     0.208153    Biso  1.000000 O
   O138        1.0     0.237872     0.246428     0.239714    Biso  1.000000 O
   O139        1.0     0.366239     0.451205     0.249950    Biso  1.000000 O
   O140        1.0     0.305112     0.442301     0.418504    Biso  1.000000 O
   O141        1.0     0.190468     0.434773     0.511306    Biso  1.000000 O
   O142        1.0     0.083593     0.452000     0.403374    Biso  1.000000 O
   O143        1.0     0.110659     0.440871     0.212329    Biso  1.000000 O
   O144        1.0     0.236968     0.428943     0.253336    Biso  1.000000 O
   O145        1.0     0.321135     0.335051     0.308532    Biso  1.000000 O
   O146        1.0     0.080374     0.334133     0.318812    Biso  1.000000 O
   O147        1.0     0.426652     0.156806     0.090452    Biso  1.000000 O
   O148        1.0     0.411000     0.286585     0.071419    Biso  1.000000 O
   O149        1.0     0.399112     0.417699     0.065671    Biso  1.000000 O
   O150        1.0     0.195830     0.155089     0.112336    Biso  1.000000 O
   O151        1.0     0.184890     0.283520     0.069224    Biso  1.000000 O
   O152        1.0     0.195337     0.415975     0.067952    Biso  1.000000 O
   O153        1.0     0.994119     0.237041     0.283914    Biso  1.000000 O
   O154        1.0     0.989137     0.424735     0.276012    Biso  1.000000 O
   O155        1.0     0.130714     0.343179     0.733107    Biso  1.000000 O
   O156        1.0     0.194250     0.349149     0.901594    Biso  1.000000 O
   O157        1.0     0.297458     0.340084     0.022511    Biso  1.000000 O
   O158        1.0     0.399649     0.349389     0.900934    Biso  1.000000 O
   O159        1.0     0.386445     0.342441     0.706902    Biso  1.000000 O
   O160        1.0     0.259857     0.324103     0.738160    Biso  1.000000 O
   O161        1.0     0.131698     0.117284     0.754122    Biso  1.000000 O
   O162        1.0     0.194504     0.126303     0.921833    Biso  1.000000 O
   O163        1.0     0.307754     0.135154     0.017749    Biso  1.000000 O
   O164        1.0     0.412186     0.118867     0.904135    Biso  1.000000 O
   O165        1.0     0.386665     0.124253     0.711779    Biso  1.000000 O
   O166        1.0     0.261279     0.136848     0.755219    Biso  1.000000 O
   O167        1.0     0.179819     0.232979     0.809743    Biso  1.000000 O
   O168        1.0     0.415951     0.234037     0.810727    Biso  1.000000 O
   O169        1.0     0.073575     0.411943     0.590329    Biso  1.000000 O
   O170        1.0     0.085782     0.281836     0.570783    Biso  1.000000 O
   O171        1.0     0.102546     0.151018     0.568851    Biso  1.000000 O
   O172        1.0     0.301472     0.415600     0.610064    Biso  1.000000 O
   O173        1.0     0.313419     0.287635     0.567411    Biso  1.000000 O
   O174        1.0     0.301818     0.155524     0.570265    Biso  1.000000 O
   O175        1.0     0.503227     0.331585     0.783549    Biso  1.000000 O
   O176        1.0     0.507661     0.142702     0.776361    Biso  1.000000 O
   O177        1.0     0.433733     0.533717     0.137747    Biso  1.000000 O
   O178        1.0     0.194755     0.533579     0.151205    Biso  1.000000 O
   O179        1.0     0.272816     0.535026     0.547487    Biso  1.000000 O
   O180        1.0     0.107056     0.534657     0.549230    Biso  1.000000 O
   O181        1.0     0.067310     0.034729     0.637764    Biso  1.000000 O
   O182        1.0     0.300126     0.035424     0.642706    Biso  1.000000 O
   O183        1.0     0.225462     0.034526     0.054855    Biso  1.000000 O
   O184        1.0     0.390655     0.034405     0.050524    Biso  1.000000 O
   O185        1.0     0.568507     0.035410     0.848610    Biso  1.000000 O
   O186        1.0     0.801858     0.035906     0.829505    Biso  1.000000 O
   O187        1.0     0.723238     0.033760     0.431730    Biso  1.000000 O
   O188        1.0     0.889374     0.034079     0.433853    Biso  1.000000 O
   O189        1.0     0.933118     0.535049     0.344805    Biso  1.000000 O
   O190        1.0     0.696004     0.535886     0.333304    Biso  1.000000 O
   O191        1.0     0.774246     0.535050     0.928854    Biso  1.000000 O
   O192        1.0     0.609848     0.534590     0.935250    Biso  1.000000 O
   H1          1.0     0.439360     0.668371     0.640971    Biso  1.000000 H
   H2          1.0     0.491991     0.570249     0.378584    Biso  1.000000 H
   H3          1.0     0.423634     0.653418     0.472046    Biso  1.000000 H
   H4          1.0     0.516400     0.608923     0.735909    Biso  1.000000 H
   H5          1.0     0.588181     0.522530     0.654322    Biso  1.000000 H
   H6          1.0     0.575168     0.503155     0.472374    Biso  1.000000 H
   C1          1.0     0.545036     0.539899     0.510132    Biso  1.000000 C
   C2          1.0     0.498737     0.576721     0.457505    Biso  1.000000 C
   C3          1.0     0.461101     0.623179     0.507344    Biso  1.000000 C
   C4          1.0     0.513538     0.597412     0.657670    Biso  1.000000 C
   C5          1.0     0.552486     0.550359     0.611280    Biso  1.000000 C
   N1          1.0     0.469373     0.632271     0.604929    Biso  1.000000 N
