data_1
_audit_creation_date              2023-04-08
_audit_creation_method            'Materials Studio'
_symmetry_space_group_name_H-M    'P1'
_symmetry_Int_Tables_number       1
_symmetry_cell_setting            triclinic
loop_
_symmetry_equiv_pos_as_xyz
  x,y,z
_cell_length_a                    101.9100
_cell_length_b                    20.1652
_cell_length_c                    67.8710
_cell_angle_alpha                 90.0000
_cell_angle_beta                  90.0000
_cell_angle_gamma                 90.0000
loop_
_atom_site_label
_atom_site_type_symbol
_atom_site_fract_x
_atom_site_fract_y
_atom_site_fract_z
_atom_site_U_iso_or_equiv
_atom_site_adp_type
_atom_site_occupancy
Si1    Si    0.08561   0.84225   0.03009   0.01267  Uiso   1.00
Si2    Si    0.06278   0.81360   0.06027   0.01267  Uiso   1.00
Si3    Si    0.05583   0.84479   0.10339   0.01267  Uiso   1.00
Si4    Si    0.02475   0.84618   0.10399   0.01267  Uiso   1.00
Si5    Si    0.01407   0.81247   0.06182   0.01267  Uiso   1.00
Si6    Si    0.03775   0.85034   0.03538   0.01267  Uiso   1.00
Si7    Si    0.05332   0.61381   0.10670   0.01267  Uiso   1.00
Si8    Si    0.02279   0.61254   0.10363   0.01267  Uiso   1.00
Si9    Si    0.01342   0.65538   0.06086   0.01267  Uiso   1.00
Si10   Si    0.03728   0.60581   0.03693   0.01267  Uiso   1.00
Si11   Si    0.01616   0.72596   0.13282   0.01267  Uiso   1.00
Si12   Si    0.03725   0.75636   0.16392   0.01267  Uiso   1.00
Si13   Si    0.04379   0.72491   0.00809   0.01267  Uiso   1.00
Si14   Si    0.07525   0.72020   0.00453   0.01267  Uiso   1.00
Si15   Si    0.08454   0.75344   0.16158   0.01267  Uiso   1.00
Si16   Si    0.06086   0.72720   0.13492   0.01267  Uiso   1.00
Si17   Si    0.01539   0.95611   0.13338   0.01267  Uiso   1.00
Si18   Si    0.03782   0.91458   0.16251   0.01267  Uiso   1.00
Si19   Si    0.04574   0.95877   0.00524   0.01267  Uiso   1.00
Si20   Si    0.07637   0.95824   0.00332   0.01267  Uiso   1.00
Si21   Si    0.08589   0.91164   0.16112   0.01267  Uiso   1.00
Si22   Si    0.06224   0.95289   0.13494   0.01267  Uiso   1.00
Si23   Si    0.11519   0.33982   0.16571   0.01267  Uiso   1.00
Si24   Si    0.13830   0.31154   0.13588   0.01267  Uiso   1.00
Si25   Si    0.14378   0.34875   0.09231   0.01267  Uiso   1.00
Si26   Si    0.17535   0.34962   0.09268   0.01267  Uiso   1.00
Si27   Si    0.18542   0.31200   0.13485   0.01267  Uiso   1.00
Si28   Si    0.16293   0.33679   0.16427   0.01267  Uiso   1.00
Si29   Si    0.11525   0.11132   0.16325   0.01267  Uiso   1.00
Si30   Si    0.13833   0.15455   0.13438   0.01267  Uiso   1.00
Si31   Si    0.14591   0.10962   0.09171   0.01267  Uiso   1.00
Si32   Si    0.17663   0.10913   0.09336   0.01267  Uiso   1.00
Si33   Si    0.18622   0.15438   0.13533   0.01267  Uiso   1.00
Si34   Si    0.16257   0.11429   0.16166   0.01267  Uiso   1.00
Si35   Si    0.18502   0.22684   0.06654   0.01267  Uiso   1.00
Si36   Si    0.16174   0.25522   0.03712   0.01267  Uiso   1.00
Si37   Si    0.15600   0.21915   0.19322   0.01267  Uiso   1.00
Si38   Si    0.12432   0.21829   0.19315   0.01267  Uiso   1.00
Si39   Si    0.11441   0.25572   0.03571   0.01267  Uiso   1.00
Si40   Si    0.13677   0.22759   0.06509   0.01267  Uiso   1.00
Si41   Si    0.18450   0.45707   0.06266   0.01267  Uiso   1.00
Si42   Si    0.16165   0.41398   0.03388   0.01267  Uiso   1.00
Si43   Si    0.15388   0.45421   0.19068   0.01267  Uiso   1.00
Si44   Si    0.12311   0.45652   0.19276   0.01267  Uiso   1.00
Si45   Si    0.11366   0.41346   0.03542   0.01267  Uiso   1.00
Si46   Si    0.13740   0.45749   0.06093   0.01267  Uiso   1.00
Si47   Si    0.11403   0.72581   0.16664   0.01267  Uiso   1.00
Si48   Si    0.13718   0.75373   0.13673   0.01267  Uiso   1.00
Si49   Si    0.14407   0.72051   0.09376   0.01267  Uiso   1.00
Si50   Si    0.17531   0.72011   0.09205   0.01267  Uiso   1.00
Si51   Si    0.18627   0.75573   0.13380   0.01267  Uiso   1.00
Si52   Si    0.16312   0.72372   0.16221   0.01267  Uiso   1.00
Si53   Si    0.11522   0.95587   0.16240   0.01267  Uiso   1.00
Si54   Si    0.13766   0.91329   0.13321   0.01267  Uiso   1.00
Si55   Si    0.14614   0.95420   0.09068   0.01267  Uiso   1.00
Si56   Si    0.17689   0.95655   0.09215   0.01267  Uiso   1.00
Si57   Si    0.18641   0.91313   0.13451   0.01267  Uiso   1.00
Si58   Si    0.16218   0.95772   0.15950   0.01267  Uiso   1.00
Si59   Si    0.18425   0.84128   0.06354   0.01267  Uiso   1.00
Si60   Si    0.16226   0.81123   0.03372   0.01267  Uiso   1.00
Si61   Si    0.15608   0.84424   0.18947   0.01267  Uiso   1.00
Si62   Si    0.12487   0.84689   0.19162   0.01267  Uiso   1.00
Si63   Si    0.13824   0.83795   0.06343   0.01267  Uiso   1.00
Si64   Si    0.18433   0.61201   0.06209   0.01267  Uiso   1.00
Si65   Si    0.16208   0.65359   0.03289   0.01267  Uiso   1.00
Si66   Si    0.15410   0.60952   0.18974   0.01267  Uiso   1.00
Si67   Si    0.12355   0.60919   0.19246   0.01267  Uiso   1.00
Si68   Si    0.13812   0.61528   0.06135   0.01267  Uiso   1.00
Si69   Si    0.08470   0.22929   0.02975   0.01267  Uiso   1.00
Si70   Si    0.06142   0.25959   0.05988   0.01267  Uiso   1.00
Si71   Si    0.05630   0.21824   0.10313   0.01267  Uiso   1.00
Si72   Si    0.02475   0.21795   0.10261   0.01267  Uiso   1.00
Si73   Si    0.01461   0.25459   0.06060   0.01267  Uiso   1.00
Si74   Si    0.03712   0.23048   0.03100   0.01267  Uiso   1.00
Si75   Si    0.08454   0.45578   0.03236   0.01267  Uiso   1.00
Si76   Si    0.05350   0.45921   0.10399   0.01267  Uiso   1.00
Si77   Si    0.02292   0.45901   0.10175   0.01267  Uiso   1.00
Si78   Si    0.01358   0.41176   0.05996   0.01267  Uiso   1.00
Si79   Si    0.03687   0.45258   0.03284   0.01267  Uiso   1.00
Si80   Si    0.01489   0.34132   0.12827   0.01267  Uiso   1.00
Si81   Si    0.03816   0.31292   0.15752   0.01267  Uiso   1.00
Si82   Si    0.04397   0.34608   0.00155   0.01267  Uiso   1.00
Si83   Si    0.07565   0.34841   0.00181   0.01267  Uiso   1.00
Si84   Si    0.08566   0.31349   0.15932   0.01267  Uiso   1.00
Si85   Si    0.06326   0.34015   0.12998   0.01267  Uiso   1.00
Si86   Si    0.01536   0.11047   0.13276   0.01267  Uiso   1.00
Si87   Si    0.03812   0.15440   0.16122   0.01267  Uiso   1.00
Si88   Si    0.04602   0.11509   0.00448   0.01267  Uiso   1.00
Si89   Si    0.07662   0.11234   0.00309   0.01267  Uiso   1.00
Si90   Si    0.08628   0.15524   0.16035   0.01267  Uiso   1.00
Si91   Si    0.06256   0.10986   0.13460   0.01267  Uiso   1.00
Si92   Si    0.11557   0.81298   0.03426   0.01267  Uiso   1.00
Si93   Si    0.11464   0.65490   0.03477   0.01267  Uiso   1.00
Si94   Si    0.08492   0.60995   0.03394   0.01267  Uiso   1.00
Si95   Si    0.06110   0.41691   0.06129   0.01267  Uiso   1.00
Al96   Al    0.06188   0.65046   0.06330   0.01267  Uiso   1.00
O97    O     0.07568   0.84207   0.04861   0.01267  Uiso   1.00
O98    O     0.06408   0.83937   0.08312   0.01267  Uiso   1.00
O99    O     0.04020   0.84616   0.09845   0.01267  Uiso   1.00
O100   O     0.01593   0.83841   0.08432   0.01267  Uiso   1.00
O101   O     0.02378   0.85166   0.04697   0.01267  Uiso   1.00
O102   O     0.04980   0.84927   0.05087   0.01267  Uiso   1.00
O103   O     0.07596   0.61481   0.05315   0.01267  Uiso   1.00
O104   O     0.06328   0.63255   0.08899   0.01267  Uiso   1.00
O105   O     0.03821   0.63325   0.10155   0.01267  Uiso   1.00
O106   O     0.01542   0.62562   0.08292   0.01267  Uiso   1.00
O107   O     0.02216   0.61659   0.04471   0.01267  Uiso   1.00
O108   O     0.04751   0.61507   0.05451   0.01267  Uiso   1.00
O109   O     0.06188   0.73502   0.05882   0.01267  Uiso   1.00
O110   O     0.01719   0.73364   0.06075   0.01267  Uiso   1.00
O111   O     0.08473   0.91280   0.01843   0.01267  Uiso   1.00
O112   O     0.08288   0.78221   0.01461   0.01267  Uiso   1.00
O113   O     0.07939   0.65082   0.01488   0.01267  Uiso   1.00
O114   O     0.03838   0.91857   0.02261   0.01267  Uiso   1.00
O115   O     0.03810   0.78664   0.02078   0.01267  Uiso   1.00
O116   O     0.03987   0.65518   0.01820   0.01267  Uiso   1.00
O117   O     0.19895   0.82722   0.05552   0.01267  Uiso   1.00
O118   O     0.19797   0.64633   0.05521   0.01267  Uiso   1.00
O119   O     0.02556   0.71887   0.15202   0.01267  Uiso   1.00
O120   O     0.03734   0.72780   0.18616   0.01267  Uiso   1.00
O121   O     0.05961   0.73234   0.00610   0.01267  Uiso   1.00
O122   O     0.07963   0.71593   0.18143   0.01267  Uiso   1.00
O123   O     0.07601   0.72869   0.14268   0.01267  Uiso   1.00
O124   O     0.05139   0.74236   0.15356   0.01267  Uiso   1.00
O125   O     0.02602   0.95211   0.15107   0.01267  Uiso   1.00
O126   O     0.03842   0.94513   0.18447   0.01267  Uiso   1.00
O127   O     0.06103   0.93507   0.00364   0.01267  Uiso   1.00
O128   O     0.08220   0.95145   0.18112   0.01267  Uiso   1.00
O129   O     0.07706   0.93936   0.14299   0.01267  Uiso   1.00
O130   O     0.05179   0.92743   0.15147   0.01267  Uiso   1.00
O131   O     0.03463   0.83589   0.16351   0.01267  Uiso   1.00
O132   O     0.08314   0.83306   0.16445   0.01267  Uiso   1.00
O133   O     0.01592   0.65609   0.12092   0.01267  Uiso   1.00
O134   O     0.02177   0.78484   0.11883   0.01267  Uiso   1.00
O135   O     0.02075   0.91604   0.11426   0.01267  Uiso   1.00
O136   O     0.05801   0.65269   0.12668   0.01267  Uiso   1.00
O137   O     0.05889   0.78135   0.11755   0.01267  Uiso   1.00
O138   O     0.06003   0.91306   0.11450   0.01267  Uiso   1.00
O139   O     0.09966   0.73304   0.15658   0.01267  Uiso   1.00
O140   O     0.10128   0.92362   0.15570   0.01267  Uiso   1.00
O141   O     0.12644   0.34312   0.14879   0.01267  Uiso   1.00
O142   O     0.13903   0.35220   0.11517   0.01267  Uiso   1.00
O143   O     0.15958   0.33962   0.09095   0.01267  Uiso   1.00
O144   O     0.17982   0.35087   0.11557   0.01267  Uiso   1.00
O145   O     0.17737   0.33585   0.15425   0.01267  Uiso   1.00
O146   O     0.15209   0.31933   0.14752   0.01267  Uiso   1.00
O147   O     0.12649   0.12021   0.14655   0.01267  Uiso   1.00
O148   O     0.13883   0.11954   0.11294   0.01267  Uiso   1.00
O149   O     0.16126   0.13171   0.09339   0.01267  Uiso   1.00
O150   O     0.18232   0.11284   0.11566   0.01267  Uiso   1.00
O151   O     0.17740   0.12841   0.15378   0.01267  Uiso   1.00
O152   O     0.15225   0.14438   0.14566   0.01267  Uiso   1.00
O153   O     0.13551   0.23348   0.13177   0.01267  Uiso   1.00
O154   O     0.18352   0.23273   0.13135   0.01267  Uiso   1.00
O155   O     0.11502   0.41015   0.17746   0.01267  Uiso   1.00
O156   O     0.11776   0.27968   0.18114   0.01267  Uiso   1.00
O157   O     0.11978   0.14838   0.18345   0.01267  Uiso   1.00
O158   O     0.16032   0.41021   0.17321   0.01267  Uiso   1.00
O159   O     0.16246   0.28235   0.18192   0.01267  Uiso   1.00
O160   O     0.16050   0.15012   0.18290   0.01267  Uiso   1.00
O161   O     0.00072   0.33011   0.13871   0.01267  Uiso   1.00
O162   O     0.00159   0.14229   0.14054   0.01267  Uiso   1.00
O163   O     0.17397   0.22459   0.04934   0.01267  Uiso   1.00
O164   O     0.16100   0.21841   0.01589   0.01267  Uiso   1.00
O165   O     0.14013   0.22621   0.19221   0.01267  Uiso   1.00
O166   O     0.11935   0.21892   0.01576   0.01267  Uiso   1.00
O167   O     0.12256   0.22717   0.05440   0.01267  Uiso   1.00
O168   O     0.14811   0.24252   0.04887   0.01267  Uiso   1.00
O169   O     0.17359   0.45009   0.04532   0.01267  Uiso   1.00
O170   O     0.16144   0.44091   0.01136   0.01267  Uiso   1.00
O171   O     0.13846   0.43394   0.19315   0.01267  Uiso   1.00
O172   O     0.11704   0.45039   0.01474   0.01267  Uiso   1.00
O173   O     0.12247   0.44599   0.05302   0.01267  Uiso   1.00
O174   O     0.14767   0.43158   0.04433   0.01267  Uiso   1.00
O175   O     0.16385   0.33442   0.03412   0.01267  Uiso   1.00
O176   O     0.11702   0.33506   0.03340   0.01267  Uiso   1.00
O177   O     0.18481   0.15787   0.07889   0.01267  Uiso   1.00
O178   O     0.18252   0.28864   0.08144   0.01267  Uiso   1.00
O179   O     0.17949   0.41968   0.08260   0.01267  Uiso   1.00
O180   O     0.13886   0.15540   0.07517   0.01267  Uiso   1.00
O181   O     0.13683   0.28555   0.08179   0.01267  Uiso   1.00
O182   O     0.13944   0.41786   0.08163   0.01267  Uiso   1.00
O183   O     0.09902   0.24052   0.03968   0.01267  Uiso   1.00
O184   O     0.09827   0.42423   0.04071   0.01267  Uiso   1.00
O185   O     0.12502   0.72359   0.14934   0.01267  Uiso   1.00
O186   O     0.13663   0.71987   0.11497   0.01267  Uiso   1.00
O187   O     0.15978   0.72517   0.09735   0.01267  Uiso   1.00
O188   O     0.18380   0.72323   0.11220   0.01267  Uiso   1.00
O189   O     0.17680   0.72140   0.15008   0.01267  Uiso   1.00
O190   O     0.15099   0.73498   0.14709   0.01267  Uiso   1.00
O191   O     0.12551   0.94999   0.14416   0.01267  Uiso   1.00
O192   O     0.13766   0.93537   0.11022   0.01267  Uiso   1.00
O193   O     0.16150   0.93559   0.09460   0.01267  Uiso   1.00
O194   O     0.18421   0.94762   0.11316   0.01267  Uiso   1.00
O195   O     0.17691   0.94675   0.15094   0.01267  Uiso   1.00
O196   O     0.15159   0.93487   0.14291   0.01267  Uiso   1.00
O197   O     0.13574   0.83363   0.13513   0.01267  Uiso   1.00
O198   O     0.18304   0.83463   0.13288   0.01267  Uiso   1.00
O199   O     0.11433   0.65600   0.17878   0.01267  Uiso   1.00
O200   O     0.11637   0.78737   0.18167   0.01267  Uiso   1.00
O201   O     0.12092   0.91748   0.18172   0.01267  Uiso   1.00
O202   O     0.16173   0.65241   0.17315   0.01267  Uiso   1.00
O203   O     0.16354   0.78351   0.17833   0.01267  Uiso   1.00
O204   O     0.16005   0.91483   0.17956   0.01267  Uiso   1.00
O205   O     0.00138   0.74324   0.14019   0.01267  Uiso   1.00
O206   O     0.00158   0.92438   0.14110   0.01267  Uiso   1.00
O207   O     0.17457   0.84670   0.04457   0.01267  Uiso   1.00
O208   O     0.16045   0.84616   0.01239   0.01267  Uiso   1.00
O209   O     0.14032   0.83186   0.18769   0.01267  Uiso   1.00
O210   O     0.12170   0.85033   0.01500   0.01267  Uiso   1.00
O211   O     0.12374   0.83465   0.05374   0.01267  Uiso   1.00
O212   O     0.14900   0.82034   0.04663   0.01267  Uiso   1.00
O213   O     0.17406   0.61622   0.04383   0.01267  Uiso   1.00
O214   O     0.16059   0.62156   0.01120   0.01267  Uiso   1.00
O215   O     0.13875   0.63267   0.18997   0.01267  Uiso   1.00
O216   O     0.11943   0.61365   0.01549   0.01267  Uiso   1.00
O217   O     0.12328   0.63111   0.05378   0.01267  Uiso   1.00
O218   O     0.14848   0.64207   0.04507   0.01267  Uiso   1.00
O219   O     0.16507   0.73232   0.03113   0.01267  Uiso   1.00
O220   O     0.11686   0.73334   0.03064   0.01267  Uiso   1.00
O221   O     0.18393   0.91087   0.07559   0.01267  Uiso   1.00
O222   O     0.17925   0.78135   0.07774   0.01267  Uiso   1.00
O223   O     0.17822   0.64987   0.08123   0.01267  Uiso   1.00
O224   O     0.14070   0.91203   0.07203   0.01267  Uiso   1.00
O225   O     0.13910   0.78430   0.08128   0.01267  Uiso   1.00
O226   O     0.14037   0.65177   0.08244   0.01267  Uiso   1.00
O227   O     0.10054   0.83442   0.03818   0.01267  Uiso   1.00
O228   O     0.09951   0.63868   0.03983   0.01267  Uiso   1.00
O229   O     0.07376   0.23337   0.04700   0.01267  Uiso   1.00
O230   O     0.06080   0.21641   0.08015   0.01267  Uiso   1.00
O231   O     0.04049   0.22745   0.10473   0.01267  Uiso   1.00
O232   O     0.02045   0.21506   0.07961   0.01267  Uiso   1.00
O233   O     0.02267   0.23339   0.04098   0.01267  Uiso   1.00
O234   O     0.04792   0.24988   0.04759   0.01267  Uiso   1.00
O235   O     0.07360   0.44695   0.04951   0.01267  Uiso   1.00
O236   O     0.06043   0.45456   0.08244   0.01267  Uiso   1.00
O237   O     0.03824   0.43554   0.10246   0.01267  Uiso   1.00
O238   O     0.01766   0.45520   0.07919   0.01267  Uiso   1.00
O239   O     0.02228   0.43391   0.04107   0.01267  Uiso   1.00
O240   O     0.04758   0.42840   0.04920   0.01267  Uiso   1.00
O241   O     0.06321   0.33781   0.06505   0.01267  Uiso   1.00
O242   O     0.01595   0.33371   0.06482   0.01267  Uiso   1.00
O243   O     0.08434   0.15683   0.01931   0.01267  Uiso   1.00
O244   O     0.08236   0.28576   0.01299   0.01267  Uiso   1.00
O245   O     0.07996   0.41708   0.01246   0.01267  Uiso   1.00
O246   O     0.03963   0.15614   0.02266   0.01267  Uiso   1.00
O247   O     0.03772   0.28201   0.01263   0.01267  Uiso   1.00
O248   O     0.03938   0.41390   0.01219   0.01267  Uiso   1.00
O249   O     0.19939   0.23485   0.05660   0.01267  Uiso   1.00
O250   O     0.19816   0.42453   0.05491   0.01267  Uiso   1.00
O251   O     0.02617   0.34559   0.14509   0.01267  Uiso   1.00
O252   O     0.03875   0.34782   0.17900   0.01267  Uiso   1.00
O253   O     0.05987   0.33971   0.00217   0.01267  Uiso   1.00
O254   O     0.08092   0.35101   0.17927   0.01267  Uiso   1.00
O255   O     0.07750   0.34243   0.14069   0.01267  Uiso   1.00
O256   O     0.05199   0.32609   0.14634   0.01267  Uiso   1.00
O257   O     0.02616   0.11649   0.15024   0.01267  Uiso   1.00
O258   O     0.03828   0.13126   0.18410   0.01267  Uiso   1.00
O259   O     0.06137   0.13647   0.00178   0.01267  Uiso   1.00
O260   O     0.08329   0.12100   0.18152   0.01267  Uiso   1.00
O261   O     0.07729   0.12219   0.14317   0.01267  Uiso   1.00
O262   O     0.05208   0.13608   0.15095   0.01267  Uiso   1.00
O263   O     0.03569   0.23376   0.15968   0.01267  Uiso   1.00
O264   O     0.08322   0.23424   0.16163   0.01267  Uiso   1.00
O265   O     0.01439   0.41036   0.11590   0.01267  Uiso   1.00
O266   O     0.01754   0.28017   0.11320   0.01267  Uiso   1.00
O267   O     0.02031   0.14893   0.11301   0.01267  Uiso   1.00
O268   O     0.06113   0.41167   0.11950   0.01267  Uiso   1.00
O269   O     0.06335   0.28126   0.11366   0.01267  Uiso   1.00
O270   O     0.06068   0.14952   0.11386   0.01267  Uiso   1.00
O271   O     0.10106   0.32947   0.15516   0.01267  Uiso   1.00
O272   O     0.10166   0.14318   0.15489   0.01267  Uiso   1.00
O273   O     0.08671   0.53297   0.02673   0.01267  Uiso   1.00
O274   O     0.03802   0.53056   0.02803   0.01267  Uiso   1.00
O275   O     0.05457   0.53483   0.11211   0.01267  Uiso   1.00
O276   O     0.02141   0.53464   0.10960   0.01267  Uiso   1.00
O277   O     0.01327   0.03307   0.12711   0.01267  Uiso   1.00
O278   O     0.06031   0.03147   0.13052   0.01267  Uiso   1.00
O279   O     0.04491   0.03735   0.01008   0.01267  Uiso   1.00
O280   O     0.07765   0.03542   0.00994   0.01267  Uiso   1.00
O281   O     0.11330   0.03329   0.16819   0.01267  Uiso   1.00
O282   O     0.16012   0.03549   0.16473   0.01267  Uiso   1.00
O283   O     0.14459   0.03235   0.08530   0.01267  Uiso   1.00
O284   O     0.17807   0.03363   0.08531   0.01267  Uiso   1.00
O285   O     0.18653   0.53477   0.06797   0.01267  Uiso   1.00
O286   O     0.13963   0.53603   0.06527   0.01267  Uiso   1.00
O287   O     0.15523   0.53143   0.18424   0.01267  Uiso   1.00
O288   O     0.12171   0.53284   0.18512   0.01267  Uiso   1.00
H289   H     0.07836   0.61034   0.09640   0.01267  Uiso   1.00
H290   H     0.11803   0.56025   0.08748   0.01267  Uiso   1.00
H291   H     0.09611   0.60087   0.07473   0.01267  Uiso   1.00
H292   H     0.07928   0.58796   0.13030   0.01267  Uiso   1.00
H293   H     0.10054   0.54786   0.14554   0.01267  Uiso   1.00
H294   H     0.12017   0.53368   0.12346   0.01267  Uiso   1.00
C295   C     0.11084   0.55093   0.11750   0.01267  Uiso   1.00
C296   C     0.10975   0.56565   0.09745   0.01267  Uiso   1.00
C297   C     0.09783   0.58779   0.09009   0.01267  Uiso   1.00
C298   C     0.08823   0.58054   0.12178   0.01267  Uiso   1.00
C299   C     0.09996   0.55859   0.12983   0.01267  Uiso   1.00
N300   N     0.08749   0.59435   0.10234   0.01267  Uiso   1.00
Si301  Si    0.28561   0.84225   0.03009   0.01267  Uiso   1.00
Si302  Si    0.26278   0.81360   0.06027   0.01267  Uiso   1.00
Si303  Si    0.25583   0.84479   0.10339   0.01267  Uiso   1.00
Si304  Si    0.22475   0.84618   0.10399   0.01267  Uiso   1.00
Si305  Si    0.21407   0.81247   0.06182   0.01267  Uiso   1.00
Si306  Si    0.23775   0.85034   0.03538   0.01267  Uiso   1.00
Si307  Si    0.25332   0.61381   0.10670   0.01267  Uiso   1.00
Si308  Si    0.22279   0.61254   0.10363   0.01267  Uiso   1.00
Si309  Si    0.21342   0.65538   0.06086   0.01267  Uiso   1.00
Si310  Si    0.23728   0.60581   0.03693   0.01267  Uiso   1.00
Si311  Si    0.21616   0.72596   0.13282   0.01267  Uiso   1.00
Si312  Si    0.23725   0.75636   0.16392   0.01267  Uiso   1.00
Si313  Si    0.24379   0.72491   0.00809   0.01267  Uiso   1.00
Si314  Si    0.27525   0.72020   0.00453   0.01267  Uiso   1.00
Si315  Si    0.28454   0.75344   0.16158   0.01267  Uiso   1.00
Si316  Si    0.26086   0.72720   0.13492   0.01267  Uiso   1.00
Si317  Si    0.21539   0.95611   0.13338   0.01267  Uiso   1.00
Si318  Si    0.23782   0.91458   0.16251   0.01267  Uiso   1.00
Si319  Si    0.24574   0.95877   0.00524   0.01267  Uiso   1.00
Si320  Si    0.27637   0.95824   0.00332   0.01267  Uiso   1.00
Si321  Si    0.28589   0.91164   0.16112   0.01267  Uiso   1.00
Si322  Si    0.26224   0.95289   0.13494   0.01267  Uiso   1.00
Si323  Si    0.31519   0.33982   0.16571   0.01267  Uiso   1.00
Si324  Si    0.33830   0.31154   0.13588   0.01267  Uiso   1.00
Si325  Si    0.34378   0.34875   0.09231   0.01267  Uiso   1.00
Si326  Si    0.37535   0.34962   0.09268   0.01267  Uiso   1.00
Si327  Si    0.38542   0.31200   0.13485   0.01267  Uiso   1.00
Si328  Si    0.36293   0.33679   0.16427   0.01267  Uiso   1.00
Si329  Si    0.31525   0.11132   0.16325   0.01267  Uiso   1.00
Si330  Si    0.33833   0.15455   0.13438   0.01267  Uiso   1.00
Si331  Si    0.34591   0.10962   0.09171   0.01267  Uiso   1.00
Si332  Si    0.37663   0.10913   0.09336   0.01267  Uiso   1.00
Si333  Si    0.38622   0.15438   0.13533   0.01267  Uiso   1.00
Si334  Si    0.36257   0.11429   0.16166   0.01267  Uiso   1.00
Si335  Si    0.38502   0.22684   0.06654   0.01267  Uiso   1.00
Si336  Si    0.36174   0.25522   0.03712   0.01267  Uiso   1.00
Si337  Si    0.35600   0.21915   0.19322   0.01267  Uiso   1.00
Si338  Si    0.32432   0.21829   0.19315   0.01267  Uiso   1.00
Si339  Si    0.31441   0.25572   0.03571   0.01267  Uiso   1.00
Si340  Si    0.33677   0.22759   0.06509   0.01267  Uiso   1.00
Si341  Si    0.38450   0.45707   0.06266   0.01267  Uiso   1.00
Si342  Si    0.36165   0.41398   0.03388   0.01267  Uiso   1.00
Si343  Si    0.35388   0.45421   0.19068   0.01267  Uiso   1.00
Si344  Si    0.32311   0.45652   0.19276   0.01267  Uiso   1.00
Si345  Si    0.31366   0.41346   0.03542   0.01267  Uiso   1.00
Si346  Si    0.33740   0.45749   0.06093   0.01267  Uiso   1.00
Si347  Si    0.31403   0.72581   0.16664   0.01267  Uiso   1.00
Si348  Si    0.33718   0.75373   0.13673   0.01267  Uiso   1.00
Si349  Si    0.34407   0.72051   0.09376   0.01267  Uiso   1.00
Si350  Si    0.37531   0.72011   0.09205   0.01267  Uiso   1.00
Si351  Si    0.38627   0.75573   0.13380   0.01267  Uiso   1.00
Si352  Si    0.36312   0.72372   0.16221   0.01267  Uiso   1.00
Si353  Si    0.31522   0.95587   0.16240   0.01267  Uiso   1.00
Si354  Si    0.33766   0.91329   0.13321   0.01267  Uiso   1.00
Si355  Si    0.34614   0.95420   0.09068   0.01267  Uiso   1.00
Si356  Si    0.37689   0.95655   0.09215   0.01267  Uiso   1.00
Si357  Si    0.38641   0.91313   0.13451   0.01267  Uiso   1.00
Si358  Si    0.36218   0.95772   0.15950   0.01267  Uiso   1.00
Si359  Si    0.38425   0.84128   0.06354   0.01267  Uiso   1.00
Si360  Si    0.36226   0.81123   0.03372   0.01267  Uiso   1.00
Si361  Si    0.35608   0.84424   0.18947   0.01267  Uiso   1.00
Si362  Si    0.32487   0.84689   0.19162   0.01267  Uiso   1.00
Si363  Si    0.33824   0.83795   0.06343   0.01267  Uiso   1.00
Si364  Si    0.38433   0.61201   0.06209   0.01267  Uiso   1.00
Si365  Si    0.36208   0.65359   0.03289   0.01267  Uiso   1.00
Si366  Si    0.35410   0.60952   0.18974   0.01267  Uiso   1.00
Si367  Si    0.32355   0.60919   0.19246   0.01267  Uiso   1.00
Si368  Si    0.33812   0.61528   0.06135   0.01267  Uiso   1.00
Si369  Si    0.28470   0.22929   0.02975   0.01267  Uiso   1.00
Si370  Si    0.26142   0.25959   0.05988   0.01267  Uiso   1.00
Si371  Si    0.25630   0.21824   0.10313   0.01267  Uiso   1.00
Si372  Si    0.22475   0.21795   0.10261   0.01267  Uiso   1.00
Si373  Si    0.21461   0.25459   0.06060   0.01267  Uiso   1.00
Si374  Si    0.23712   0.23048   0.03100   0.01267  Uiso   1.00
Si375  Si    0.28454   0.45578   0.03236   0.01267  Uiso   1.00
Si376  Si    0.25350   0.45921   0.10399   0.01267  Uiso   1.00
Si377  Si    0.22292   0.45901   0.10175   0.01267  Uiso   1.00
Si378  Si    0.21358   0.41176   0.05996   0.01267  Uiso   1.00
Si379  Si    0.23687   0.45258   0.03284   0.01267  Uiso   1.00
Si380  Si    0.21489   0.34132   0.12827   0.01267  Uiso   1.00
Si381  Si    0.23816   0.31292   0.15752   0.01267  Uiso   1.00
Si382  Si    0.24397   0.34608   0.00155   0.01267  Uiso   1.00
Si383  Si    0.27565   0.34841   0.00181   0.01267  Uiso   1.00
Si384  Si    0.28566   0.31349   0.15932   0.01267  Uiso   1.00
Si385  Si    0.26326   0.34015   0.12998   0.01267  Uiso   1.00
Si386  Si    0.21536   0.11047   0.13276   0.01267  Uiso   1.00
Si387  Si    0.23812   0.15440   0.16122   0.01267  Uiso   1.00
Si388  Si    0.24602   0.11509   0.00448   0.01267  Uiso   1.00
Si389  Si    0.27662   0.11234   0.00309   0.01267  Uiso   1.00
Si390  Si    0.28628   0.15524   0.16035   0.01267  Uiso   1.00
Si391  Si    0.26256   0.10986   0.13460   0.01267  Uiso   1.00
Si392  Si    0.31557   0.81298   0.03426   0.01267  Uiso   1.00
Si393  Si    0.31464   0.65490   0.03477   0.01267  Uiso   1.00
Si394  Si    0.28492   0.60995   0.03394   0.01267  Uiso   1.00
Si395  Si    0.26110   0.41691   0.06129   0.01267  Uiso   1.00
Al396  Al    0.26188   0.65046   0.06330   0.01267  Uiso   1.00
O397   O     0.27568   0.84207   0.04861   0.01267  Uiso   1.00
O398   O     0.26408   0.83937   0.08312   0.01267  Uiso   1.00
O399   O     0.24020   0.84616   0.09845   0.01267  Uiso   1.00
O400   O     0.21593   0.83841   0.08432   0.01267  Uiso   1.00
O401   O     0.22378   0.85166   0.04697   0.01267  Uiso   1.00
O402   O     0.24980   0.84927   0.05087   0.01267  Uiso   1.00
O403   O     0.27596   0.61481   0.05315   0.01267  Uiso   1.00
O404   O     0.26328   0.63255   0.08899   0.01267  Uiso   1.00
O405   O     0.23821   0.63325   0.10155   0.01267  Uiso   1.00
O406   O     0.21542   0.62562   0.08292   0.01267  Uiso   1.00
O407   O     0.22216   0.61659   0.04471   0.01267  Uiso   1.00
O408   O     0.24751   0.61507   0.05451   0.01267  Uiso   1.00
O409   O     0.26188   0.73502   0.05882   0.01267  Uiso   1.00
O410   O     0.21719   0.73364   0.06075   0.01267  Uiso   1.00
O411   O     0.28473   0.91280   0.01843   0.01267  Uiso   1.00
O412   O     0.28288   0.78221   0.01461   0.01267  Uiso   1.00
O413   O     0.27939   0.65082   0.01488   0.01267  Uiso   1.00
O414   O     0.23838   0.91857   0.02261   0.01267  Uiso   1.00
O415   O     0.23810   0.78664   0.02078   0.01267  Uiso   1.00
O416   O     0.23988   0.65518   0.01820   0.01267  Uiso   1.00
O417   O     0.39895   0.82722   0.05552   0.01267  Uiso   1.00
O418   O     0.39797   0.64633   0.05521   0.01267  Uiso   1.00
O419   O     0.22556   0.71887   0.15202   0.01267  Uiso   1.00
O420   O     0.23734   0.72780   0.18616   0.01267  Uiso   1.00
O421   O     0.25961   0.73234   0.00610   0.01267  Uiso   1.00
O422   O     0.27963   0.71593   0.18143   0.01267  Uiso   1.00
O423   O     0.27601   0.72869   0.14268   0.01267  Uiso   1.00
O424   O     0.25139   0.74236   0.15356   0.01267  Uiso   1.00
O425   O     0.22602   0.95211   0.15107   0.01267  Uiso   1.00
O426   O     0.23842   0.94513   0.18447   0.01267  Uiso   1.00
O427   O     0.26103   0.93507   0.00364   0.01267  Uiso   1.00
O428   O     0.28220   0.95145   0.18112   0.01267  Uiso   1.00
O429   O     0.27706   0.93936   0.14299   0.01267  Uiso   1.00
O430   O     0.25179   0.92743   0.15147   0.01267  Uiso   1.00
O431   O     0.23463   0.83589   0.16351   0.01267  Uiso   1.00
O432   O     0.28314   0.83306   0.16445   0.01267  Uiso   1.00
O433   O     0.21592   0.65609   0.12092   0.01267  Uiso   1.00
O434   O     0.22177   0.78484   0.11883   0.01267  Uiso   1.00
O435   O     0.22075   0.91604   0.11426   0.01267  Uiso   1.00
O436   O     0.25801   0.65269   0.12668   0.01267  Uiso   1.00
O437   O     0.25889   0.78135   0.11755   0.01267  Uiso   1.00
O438   O     0.26003   0.91306   0.11450   0.01267  Uiso   1.00
O439   O     0.29966   0.73304   0.15658   0.01267  Uiso   1.00
O440   O     0.30128   0.92362   0.15570   0.01267  Uiso   1.00
O441   O     0.32644   0.34312   0.14879   0.01267  Uiso   1.00
O442   O     0.33903   0.35220   0.11517   0.01267  Uiso   1.00
O443   O     0.35958   0.33962   0.09095   0.01267  Uiso   1.00
O444   O     0.37982   0.35087   0.11557   0.01267  Uiso   1.00
O445   O     0.37737   0.33585   0.15425   0.01267  Uiso   1.00
O446   O     0.35209   0.31933   0.14752   0.01267  Uiso   1.00
O447   O     0.32649   0.12021   0.14655   0.01267  Uiso   1.00
O448   O     0.33883   0.11954   0.11294   0.01267  Uiso   1.00
O449   O     0.36126   0.13171   0.09339   0.01267  Uiso   1.00
O450   O     0.38232   0.11284   0.11566   0.01267  Uiso   1.00
O451   O     0.37740   0.12841   0.15378   0.01267  Uiso   1.00
O452   O     0.35225   0.14438   0.14566   0.01267  Uiso   1.00
O453   O     0.33551   0.23348   0.13177   0.01267  Uiso   1.00
O454   O     0.38352   0.23273   0.13135   0.01267  Uiso   1.00
O455   O     0.31502   0.41015   0.17746   0.01267  Uiso   1.00
O456   O     0.31776   0.27968   0.18114   0.01267  Uiso   1.00
O457   O     0.31978   0.14838   0.18345   0.01267  Uiso   1.00
O458   O     0.36032   0.41021   0.17321   0.01267  Uiso   1.00
O459   O     0.36246   0.28235   0.18192   0.01267  Uiso   1.00
O460   O     0.36050   0.15012   0.18290   0.01267  Uiso   1.00
O461   O     0.20072   0.33011   0.13871   0.01267  Uiso   1.00
O462   O     0.20159   0.14229   0.14054   0.01267  Uiso   1.00
O463   O     0.37397   0.22459   0.04934   0.01267  Uiso   1.00
O464   O     0.36100   0.21841   0.01589   0.01267  Uiso   1.00
O465   O     0.34013   0.22621   0.19221   0.01267  Uiso   1.00
O466   O     0.31935   0.21892   0.01576   0.01267  Uiso   1.00
O467   O     0.32256   0.22717   0.05440   0.01267  Uiso   1.00
O468   O     0.34811   0.24252   0.04887   0.01267  Uiso   1.00
O469   O     0.37359   0.45009   0.04532   0.01267  Uiso   1.00
O470   O     0.36144   0.44091   0.01136   0.01267  Uiso   1.00
O471   O     0.33846   0.43394   0.19315   0.01267  Uiso   1.00
O472   O     0.31704   0.45039   0.01474   0.01267  Uiso   1.00
O473   O     0.32247   0.44599   0.05302   0.01267  Uiso   1.00
O474   O     0.34767   0.43158   0.04433   0.01267  Uiso   1.00
O475   O     0.36385   0.33442   0.03412   0.01267  Uiso   1.00
O476   O     0.31702   0.33506   0.03340   0.01267  Uiso   1.00
O477   O     0.38481   0.15787   0.07889   0.01267  Uiso   1.00
O478   O     0.38252   0.28864   0.08144   0.01267  Uiso   1.00
O479   O     0.37949   0.41968   0.08260   0.01267  Uiso   1.00
O480   O     0.33886   0.15540   0.07517   0.01267  Uiso   1.00
O481   O     0.33683   0.28555   0.08179   0.01267  Uiso   1.00
O482   O     0.33944   0.41786   0.08163   0.01267  Uiso   1.00
O483   O     0.29902   0.24052   0.03968   0.01267  Uiso   1.00
O484   O     0.29827   0.42423   0.04071   0.01267  Uiso   1.00
O485   O     0.32502   0.72359   0.14934   0.01267  Uiso   1.00
O486   O     0.33663   0.71987   0.11497   0.01267  Uiso   1.00
O487   O     0.35978   0.72517   0.09735   0.01267  Uiso   1.00
O488   O     0.38380   0.72323   0.11220   0.01267  Uiso   1.00
O489   O     0.37680   0.72140   0.15008   0.01267  Uiso   1.00
O490   O     0.35099   0.73498   0.14709   0.01267  Uiso   1.00
O491   O     0.32551   0.94999   0.14416   0.01267  Uiso   1.00
O492   O     0.33766   0.93537   0.11022   0.01267  Uiso   1.00
O493   O     0.36150   0.93559   0.09460   0.01267  Uiso   1.00
O494   O     0.38421   0.94762   0.11316   0.01267  Uiso   1.00
O495   O     0.37691   0.94675   0.15094   0.01267  Uiso   1.00
O496   O     0.35159   0.93487   0.14291   0.01267  Uiso   1.00
O497   O     0.33574   0.83363   0.13513   0.01267  Uiso   1.00
O498   O     0.38304   0.83463   0.13288   0.01267  Uiso   1.00
O499   O     0.31433   0.65600   0.17878   0.01267  Uiso   1.00
O500   O     0.31637   0.78737   0.18167   0.01267  Uiso   1.00
O501   O     0.32092   0.91748   0.18172   0.01267  Uiso   1.00
O502   O     0.36173   0.65241   0.17315   0.01267  Uiso   1.00
O503   O     0.36354   0.78351   0.17833   0.01267  Uiso   1.00
O504   O     0.36005   0.91483   0.17956   0.01267  Uiso   1.00
O505   O     0.20138   0.74324   0.14019   0.01267  Uiso   1.00
O506   O     0.20158   0.92438   0.14110   0.01267  Uiso   1.00
O507   O     0.37457   0.84670   0.04457   0.01267  Uiso   1.00
O508   O     0.36045   0.84616   0.01239   0.01267  Uiso   1.00
O509   O     0.34032   0.83186   0.18769   0.01267  Uiso   1.00
O510   O     0.32170   0.85033   0.01500   0.01267  Uiso   1.00
O511   O     0.32374   0.83465   0.05374   0.01267  Uiso   1.00
O512   O     0.34900   0.82034   0.04663   0.01267  Uiso   1.00
O513   O     0.37406   0.61622   0.04383   0.01267  Uiso   1.00
O514   O     0.36059   0.62156   0.01120   0.01267  Uiso   1.00
O515   O     0.33875   0.63267   0.18997   0.01267  Uiso   1.00
O516   O     0.31943   0.61365   0.01549   0.01267  Uiso   1.00
O517   O     0.32328   0.63111   0.05378   0.01267  Uiso   1.00
O518   O     0.34848   0.64207   0.04507   0.01267  Uiso   1.00
O519   O     0.36507   0.73232   0.03113   0.01267  Uiso   1.00
O520   O     0.31686   0.73334   0.03064   0.01267  Uiso   1.00
O521   O     0.38393   0.91087   0.07559   0.01267  Uiso   1.00
O522   O     0.37925   0.78135   0.07774   0.01267  Uiso   1.00
O523   O     0.37822   0.64987   0.08123   0.01267  Uiso   1.00
O524   O     0.34070   0.91203   0.07203   0.01267  Uiso   1.00
O525   O     0.33910   0.78430   0.08128   0.01267  Uiso   1.00
O526   O     0.34037   0.65177   0.08244   0.01267  Uiso   1.00
O527   O     0.30054   0.83442   0.03818   0.01267  Uiso   1.00
O528   O     0.29951   0.63868   0.03983   0.01267  Uiso   1.00
O529   O     0.27376   0.23337   0.04700   0.01267  Uiso   1.00
O530   O     0.26080   0.21641   0.08015   0.01267  Uiso   1.00
O531   O     0.24049   0.22745   0.10473   0.01267  Uiso   1.00
O532   O     0.22045   0.21506   0.07961   0.01267  Uiso   1.00
O533   O     0.22267   0.23339   0.04098   0.01267  Uiso   1.00
O534   O     0.24792   0.24988   0.04759   0.01267  Uiso   1.00
O535   O     0.27360   0.44695   0.04951   0.01267  Uiso   1.00
O536   O     0.26043   0.45456   0.08244   0.01267  Uiso   1.00
O537   O     0.23824   0.43554   0.10246   0.01267  Uiso   1.00
O538   O     0.21766   0.45520   0.07919   0.01267  Uiso   1.00
O539   O     0.22228   0.43391   0.04107   0.01267  Uiso   1.00
O540   O     0.24758   0.42840   0.04920   0.01267  Uiso   1.00
O541   O     0.26321   0.33781   0.06505   0.01267  Uiso   1.00
O542   O     0.21595   0.33371   0.06482   0.01267  Uiso   1.00
O543   O     0.28434   0.15683   0.01931   0.01267  Uiso   1.00
O544   O     0.28236   0.28576   0.01299   0.01267  Uiso   1.00
O545   O     0.27996   0.41708   0.01246   0.01267  Uiso   1.00
O546   O     0.23963   0.15614   0.02266   0.01267  Uiso   1.00
O547   O     0.23772   0.28201   0.01263   0.01267  Uiso   1.00
O548   O     0.23938   0.41390   0.01219   0.01267  Uiso   1.00
O549   O     0.39939   0.23485   0.05660   0.01267  Uiso   1.00
O550   O     0.39816   0.42453   0.05491   0.01267  Uiso   1.00
O551   O     0.22617   0.34559   0.14509   0.01267  Uiso   1.00
O552   O     0.23875   0.34782   0.17900   0.01267  Uiso   1.00
O553   O     0.25987   0.33971   0.00217   0.01267  Uiso   1.00
O554   O     0.28092   0.35101   0.17927   0.01267  Uiso   1.00
O555   O     0.27750   0.34243   0.14069   0.01267  Uiso   1.00
O556   O     0.25199   0.32609   0.14634   0.01267  Uiso   1.00
O557   O     0.22616   0.11649   0.15024   0.01267  Uiso   1.00
O558   O     0.23828   0.13126   0.18410   0.01267  Uiso   1.00
O559   O     0.26137   0.13647   0.00178   0.01267  Uiso   1.00
O560   O     0.28329   0.12100   0.18152   0.01267  Uiso   1.00
O561   O     0.27729   0.12219   0.14317   0.01267  Uiso   1.00
O562   O     0.25208   0.13608   0.15095   0.01267  Uiso   1.00
O563   O     0.23569   0.23376   0.15968   0.01267  Uiso   1.00
O564   O     0.28322   0.23424   0.16163   0.01267  Uiso   1.00
O565   O     0.21439   0.41036   0.11590   0.01267  Uiso   1.00
O566   O     0.21754   0.28017   0.11320   0.01267  Uiso   1.00
O567   O     0.22031   0.14893   0.11301   0.01267  Uiso   1.00
O568   O     0.26113   0.41167   0.11950   0.01267  Uiso   1.00
O569   O     0.26335   0.28126   0.11366   0.01267  Uiso   1.00
O570   O     0.26068   0.14952   0.11386   0.01267  Uiso   1.00
O571   O     0.30106   0.32947   0.15516   0.01267  Uiso   1.00
O572   O     0.30166   0.14318   0.15489   0.01267  Uiso   1.00
O573   O     0.28671   0.53297   0.02673   0.01267  Uiso   1.00
O574   O     0.23802   0.53056   0.02803   0.01267  Uiso   1.00
O575   O     0.25457   0.53483   0.11211   0.01267  Uiso   1.00
O576   O     0.22141   0.53464   0.10960   0.01267  Uiso   1.00
O577   O     0.21327   0.03307   0.12711   0.01267  Uiso   1.00
O578   O     0.26031   0.03147   0.13052   0.01267  Uiso   1.00
O579   O     0.24491   0.03735   0.01008   0.01267  Uiso   1.00
O580   O     0.27765   0.03542   0.00994   0.01267  Uiso   1.00
O581   O     0.31330   0.03329   0.16819   0.01267  Uiso   1.00
O582   O     0.36012   0.03549   0.16473   0.01267  Uiso   1.00
O583   O     0.34459   0.03235   0.08530   0.01267  Uiso   1.00
O584   O     0.37807   0.03363   0.08531   0.01267  Uiso   1.00
O585   O     0.38653   0.53477   0.06797   0.01267  Uiso   1.00
O586   O     0.33963   0.53603   0.06527   0.01267  Uiso   1.00
O587   O     0.35523   0.53143   0.18424   0.01267  Uiso   1.00
O588   O     0.32171   0.53284   0.18512   0.01267  Uiso   1.00
H589   H     0.27836   0.61034   0.09640   0.01267  Uiso   1.00
H590   H     0.31803   0.56025   0.08748   0.01267  Uiso   1.00
H591   H     0.29611   0.60087   0.07473   0.01267  Uiso   1.00
H592   H     0.27928   0.58796   0.13030   0.01267  Uiso   1.00
H593   H     0.30054   0.54786   0.14554   0.01267  Uiso   1.00
H594   H     0.32017   0.53368   0.12346   0.01267  Uiso   1.00
C595   C     0.31084   0.55093   0.11750   0.01267  Uiso   1.00
C596   C     0.30975   0.56565   0.09745   0.01267  Uiso   1.00
C597   C     0.29783   0.58779   0.09009   0.01267  Uiso   1.00
C598   C     0.28823   0.58054   0.12178   0.01267  Uiso   1.00
C599   C     0.29996   0.55859   0.12983   0.01267  Uiso   1.00
N600   N     0.28749   0.59435   0.10234   0.01267  Uiso   1.00
Si601  Si    0.48561   0.84225   0.03009   0.01267  Uiso   1.00
Si602  Si    0.46278   0.81360   0.06027   0.01267  Uiso   1.00
Si603  Si    0.45583   0.84479   0.10339   0.01267  Uiso   1.00
Si604  Si    0.42475   0.84618   0.10399   0.01267  Uiso   1.00
Si605  Si    0.41407   0.81247   0.06182   0.01267  Uiso   1.00
Si606  Si    0.43775   0.85034   0.03538   0.01267  Uiso   1.00
Si607  Si    0.45332   0.61381   0.10670   0.01267  Uiso   1.00
Si608  Si    0.42279   0.61254   0.10363   0.01267  Uiso   1.00
Si609  Si    0.41342   0.65538   0.06086   0.01267  Uiso   1.00
Si610  Si    0.43728   0.60581   0.03693   0.01267  Uiso   1.00
Si611  Si    0.41616   0.72596   0.13282   0.01267  Uiso   1.00
Si612  Si    0.43725   0.75636   0.16392   0.01267  Uiso   1.00
Si613  Si    0.44379   0.72491   0.00809   0.01267  Uiso   1.00
Si614  Si    0.47525   0.72020   0.00453   0.01267  Uiso   1.00
Si615  Si    0.48454   0.75344   0.16158   0.01267  Uiso   1.00
Si616  Si    0.46086   0.72720   0.13492   0.01267  Uiso   1.00
Si617  Si    0.41539   0.95611   0.13338   0.01267  Uiso   1.00
Si618  Si    0.43782   0.91458   0.16251   0.01267  Uiso   1.00
Si619  Si    0.44574   0.95877   0.00524   0.01267  Uiso   1.00
Si620  Si    0.47637   0.95824   0.00332   0.01267  Uiso   1.00
Si621  Si    0.48589   0.91164   0.16112   0.01267  Uiso   1.00
Si622  Si    0.46224   0.95289   0.13494   0.01267  Uiso   1.00
Si623  Si    0.51519   0.33982   0.16571   0.01267  Uiso   1.00
Si624  Si    0.53830   0.31154   0.13588   0.01267  Uiso   1.00
Si625  Si    0.54378   0.34875   0.09231   0.01267  Uiso   1.00
Si626  Si    0.57535   0.34962   0.09268   0.01267  Uiso   1.00
Si627  Si    0.58542   0.31200   0.13485   0.01267  Uiso   1.00
Si628  Si    0.56293   0.33679   0.16427   0.01267  Uiso   1.00
Si629  Si    0.51525   0.11132   0.16325   0.01267  Uiso   1.00
Si630  Si    0.53833   0.15455   0.13438   0.01267  Uiso   1.00
Si631  Si    0.54591   0.10962   0.09171   0.01267  Uiso   1.00
Si632  Si    0.57663   0.10913   0.09336   0.01267  Uiso   1.00
Si633  Si    0.58622   0.15438   0.13533   0.01267  Uiso   1.00
Si634  Si    0.56257   0.11429   0.16166   0.01267  Uiso   1.00
Si635  Si    0.58502   0.22684   0.06654   0.01267  Uiso   1.00
Si636  Si    0.56174   0.25522   0.03712   0.01267  Uiso   1.00
Si637  Si    0.55600   0.21915   0.19322   0.01267  Uiso   1.00
Si638  Si    0.52432   0.21829   0.19315   0.01267  Uiso   1.00
Si639  Si    0.51441   0.25572   0.03571   0.01267  Uiso   1.00
Si640  Si    0.53677   0.22759   0.06509   0.01267  Uiso   1.00
Si641  Si    0.58450   0.45707   0.06266   0.01267  Uiso   1.00
Si642  Si    0.56165   0.41398   0.03388   0.01267  Uiso   1.00
Si643  Si    0.55388   0.45421   0.19068   0.01267  Uiso   1.00
Si644  Si    0.52311   0.45652   0.19276   0.01267  Uiso   1.00
Si645  Si    0.51366   0.41346   0.03542   0.01267  Uiso   1.00
Si646  Si    0.53740   0.45749   0.06093   0.01267  Uiso   1.00
Si647  Si    0.51403   0.72581   0.16664   0.01267  Uiso   1.00
Si648  Si    0.53718   0.75373   0.13673   0.01267  Uiso   1.00
Si649  Si    0.54407   0.72051   0.09376   0.01267  Uiso   1.00
Si650  Si    0.57531   0.72011   0.09205   0.01267  Uiso   1.00
Si651  Si    0.58627   0.75573   0.13380   0.01267  Uiso   1.00
Si652  Si    0.56312   0.72372   0.16221   0.01267  Uiso   1.00
Si653  Si    0.51522   0.95587   0.16240   0.01267  Uiso   1.00
Si654  Si    0.53766   0.91329   0.13321   0.01267  Uiso   1.00
Si655  Si    0.54614   0.95420   0.09068   0.01267  Uiso   1.00
Si656  Si    0.57689   0.95655   0.09215   0.01267  Uiso   1.00
Si657  Si    0.58641   0.91313   0.13451   0.01267  Uiso   1.00
Si658  Si    0.56218   0.95772   0.15950   0.01267  Uiso   1.00
Si659  Si    0.58425   0.84128   0.06354   0.01267  Uiso   1.00
Si660  Si    0.56226   0.81123   0.03372   0.01267  Uiso   1.00
Si661  Si    0.55608   0.84424   0.18947   0.01267  Uiso   1.00
Si662  Si    0.52487   0.84689   0.19162   0.01267  Uiso   1.00
Si663  Si    0.53824   0.83795   0.06343   0.01267  Uiso   1.00
Si664  Si    0.58433   0.61201   0.06209   0.01267  Uiso   1.00
Si665  Si    0.56208   0.65359   0.03289   0.01267  Uiso   1.00
Si666  Si    0.55410   0.60952   0.18974   0.01267  Uiso   1.00
Si667  Si    0.52355   0.60919   0.19246   0.01267  Uiso   1.00
Si668  Si    0.53812   0.61528   0.06135   0.01267  Uiso   1.00
Si669  Si    0.48470   0.22929   0.02975   0.01267  Uiso   1.00
Si670  Si    0.46142   0.25959   0.05988   0.01267  Uiso   1.00
Si671  Si    0.45630   0.21824   0.10313   0.01267  Uiso   1.00
Si672  Si    0.42475   0.21795   0.10261   0.01267  Uiso   1.00
Si673  Si    0.41461   0.25459   0.06060   0.01267  Uiso   1.00
Si674  Si    0.43712   0.23048   0.03100   0.01267  Uiso   1.00
Si675  Si    0.48454   0.45578   0.03236   0.01267  Uiso   1.00
Si676  Si    0.45350   0.45921   0.10399   0.01267  Uiso   1.00
Si677  Si    0.42292   0.45901   0.10175   0.01267  Uiso   1.00
Si678  Si    0.41358   0.41176   0.05996   0.01267  Uiso   1.00
Si679  Si    0.43687   0.45258   0.03284   0.01267  Uiso   1.00
Si680  Si    0.41489   0.34132   0.12827   0.01267  Uiso   1.00
Si681  Si    0.43816   0.31292   0.15752   0.01267  Uiso   1.00
Si682  Si    0.44397   0.34608   0.00155   0.01267  Uiso   1.00
Si683  Si    0.47565   0.34841   0.00181   0.01267  Uiso   1.00
Si684  Si    0.48566   0.31349   0.15932   0.01267  Uiso   1.00
Si685  Si    0.46326   0.34015   0.12998   0.01267  Uiso   1.00
Si686  Si    0.41536   0.11047   0.13276   0.01267  Uiso   1.00
Si687  Si    0.43812   0.15440   0.16122   0.01267  Uiso   1.00
Si688  Si    0.44602   0.11509   0.00448   0.01267  Uiso   1.00
Si689  Si    0.47662   0.11234   0.00309   0.01267  Uiso   1.00
Si690  Si    0.48628   0.15524   0.16035   0.01267  Uiso   1.00
Si691  Si    0.46256   0.10986   0.13460   0.01267  Uiso   1.00
Si692  Si    0.51557   0.81298   0.03426   0.01267  Uiso   1.00
Si693  Si    0.51464   0.65490   0.03477   0.01267  Uiso   1.00
Si694  Si    0.48492   0.60995   0.03394   0.01267  Uiso   1.00
Si695  Si    0.46110   0.41691   0.06129   0.01267  Uiso   1.00
Al696  Al    0.46188   0.65046   0.06330   0.01267  Uiso   1.00
O697   O     0.47568   0.84207   0.04861   0.01267  Uiso   1.00
O698   O     0.46408   0.83937   0.08312   0.01267  Uiso   1.00
O699   O     0.44020   0.84616   0.09845   0.01267  Uiso   1.00
O700   O     0.41593   0.83841   0.08432   0.01267  Uiso   1.00
O701   O     0.42378   0.85166   0.04697   0.01267  Uiso   1.00
O702   O     0.44980   0.84927   0.05087   0.01267  Uiso   1.00
O703   O     0.47596   0.61481   0.05315   0.01267  Uiso   1.00
O704   O     0.46328   0.63255   0.08899   0.01267  Uiso   1.00
O705   O     0.43821   0.63325   0.10155   0.01267  Uiso   1.00
O706   O     0.41542   0.62562   0.08292   0.01267  Uiso   1.00
O707   O     0.42216   0.61659   0.04471   0.01267  Uiso   1.00
O708   O     0.44751   0.61507   0.05451   0.01267  Uiso   1.00
O709   O     0.46188   0.73502   0.05882   0.01267  Uiso   1.00
O710   O     0.41719   0.73364   0.06075   0.01267  Uiso   1.00
O711   O     0.48473   0.91280   0.01843   0.01267  Uiso   1.00
O712   O     0.48288   0.78221   0.01461   0.01267  Uiso   1.00
O713   O     0.47939   0.65082   0.01488   0.01267  Uiso   1.00
O714   O     0.43838   0.91857   0.02261   0.01267  Uiso   1.00
O715   O     0.43810   0.78664   0.02078   0.01267  Uiso   1.00
O716   O     0.43987   0.65518   0.01820   0.01267  Uiso   1.00
O717   O     0.59895   0.82722   0.05552   0.01267  Uiso   1.00
O718   O     0.59797   0.64633   0.05521   0.01267  Uiso   1.00
O719   O     0.42556   0.71887   0.15202   0.01267  Uiso   1.00
O720   O     0.43734   0.72780   0.18616   0.01267  Uiso   1.00
O721   O     0.45961   0.73234   0.00610   0.01267  Uiso   1.00
O722   O     0.47963   0.71593   0.18143   0.01267  Uiso   1.00
O723   O     0.47601   0.72869   0.14268   0.01267  Uiso   1.00
O724   O     0.45139   0.74236   0.15356   0.01267  Uiso   1.00
O725   O     0.42602   0.95211   0.15107   0.01267  Uiso   1.00
O726   O     0.43842   0.94513   0.18447   0.01267  Uiso   1.00
O727   O     0.46103   0.93507   0.00364   0.01267  Uiso   1.00
O728   O     0.48220   0.95145   0.18112   0.01267  Uiso   1.00
O729   O     0.47706   0.93936   0.14299   0.01267  Uiso   1.00
O730   O     0.45179   0.92743   0.15147   0.01267  Uiso   1.00
O731   O     0.43463   0.83589   0.16351   0.01267  Uiso   1.00
O732   O     0.48314   0.83306   0.16445   0.01267  Uiso   1.00
O733   O     0.41592   0.65609   0.12092   0.01267  Uiso   1.00
O734   O     0.42177   0.78484   0.11883   0.01267  Uiso   1.00
O735   O     0.42075   0.91604   0.11426   0.01267  Uiso   1.00
O736   O     0.45801   0.65269   0.12668   0.01267  Uiso   1.00
O737   O     0.45889   0.78135   0.11755   0.01267  Uiso   1.00
O738   O     0.46003   0.91306   0.11450   0.01267  Uiso   1.00
O739   O     0.49966   0.73304   0.15658   0.01267  Uiso   1.00
O740   O     0.50128   0.92362   0.15570   0.01267  Uiso   1.00
O741   O     0.52644   0.34312   0.14879   0.01267  Uiso   1.00
O742   O     0.53903   0.35220   0.11517   0.01267  Uiso   1.00
O743   O     0.55958   0.33962   0.09095   0.01267  Uiso   1.00
O744   O     0.57982   0.35087   0.11557   0.01267  Uiso   1.00
O745   O     0.57737   0.33585   0.15425   0.01267  Uiso   1.00
O746   O     0.55209   0.31933   0.14752   0.01267  Uiso   1.00
O747   O     0.52649   0.12021   0.14655   0.01267  Uiso   1.00
O748   O     0.53883   0.11954   0.11294   0.01267  Uiso   1.00
O749   O     0.56126   0.13171   0.09339   0.01267  Uiso   1.00
O750   O     0.58232   0.11284   0.11566   0.01267  Uiso   1.00
O751   O     0.57740   0.12841   0.15378   0.01267  Uiso   1.00
O752   O     0.55225   0.14438   0.14566   0.01267  Uiso   1.00
O753   O     0.53551   0.23348   0.13177   0.01267  Uiso   1.00
O754   O     0.58352   0.23273   0.13135   0.01267  Uiso   1.00
O755   O     0.51502   0.41015   0.17746   0.01267  Uiso   1.00
O756   O     0.51776   0.27968   0.18114   0.01267  Uiso   1.00
O757   O     0.51978   0.14838   0.18345   0.01267  Uiso   1.00
O758   O     0.56032   0.41021   0.17321   0.01267  Uiso   1.00
O759   O     0.56246   0.28235   0.18192   0.01267  Uiso   1.00
O760   O     0.56050   0.15012   0.18290   0.01267  Uiso   1.00
O761   O     0.40072   0.33011   0.13871   0.01267  Uiso   1.00
O762   O     0.40159   0.14229   0.14054   0.01267  Uiso   1.00
O763   O     0.57397   0.22459   0.04934   0.01267  Uiso   1.00
O764   O     0.56100   0.21841   0.01589   0.01267  Uiso   1.00
O765   O     0.54013   0.22621   0.19221   0.01267  Uiso   1.00
O766   O     0.51935   0.21892   0.01576   0.01267  Uiso   1.00
O767   O     0.52256   0.22717   0.05440   0.01267  Uiso   1.00
O768   O     0.54811   0.24252   0.04887   0.01267  Uiso   1.00
O769   O     0.57359   0.45009   0.04532   0.01267  Uiso   1.00
O770   O     0.56144   0.44091   0.01136   0.01267  Uiso   1.00
O771   O     0.53846   0.43394   0.19315   0.01267  Uiso   1.00
O772   O     0.51704   0.45039   0.01474   0.01267  Uiso   1.00
O773   O     0.52247   0.44599   0.05302   0.01267  Uiso   1.00
O774   O     0.54767   0.43158   0.04433   0.01267  Uiso   1.00
O775   O     0.56385   0.33442   0.03412   0.01267  Uiso   1.00
O776   O     0.51702   0.33506   0.03340   0.01267  Uiso   1.00
O777   O     0.58481   0.15787   0.07889   0.01267  Uiso   1.00
O778   O     0.58252   0.28864   0.08144   0.01267  Uiso   1.00
O779   O     0.57949   0.41968   0.08260   0.01267  Uiso   1.00
O780   O     0.53886   0.15540   0.07517   0.01267  Uiso   1.00
O781   O     0.53683   0.28555   0.08179   0.01267  Uiso   1.00
O782   O     0.53944   0.41786   0.08163   0.01267  Uiso   1.00
O783   O     0.49902   0.24052   0.03968   0.01267  Uiso   1.00
O784   O     0.49827   0.42423   0.04071   0.01267  Uiso   1.00
O785   O     0.52502   0.72359   0.14934   0.01267  Uiso   1.00
O786   O     0.53663   0.71987   0.11497   0.01267  Uiso   1.00
O787   O     0.55978   0.72517   0.09735   0.01267  Uiso   1.00
O788   O     0.58380   0.72323   0.11220   0.01267  Uiso   1.00
O789   O     0.57680   0.72140   0.15008   0.01267  Uiso   1.00
O790   O     0.55099   0.73498   0.14709   0.01267  Uiso   1.00
O791   O     0.52551   0.94999   0.14416   0.01267  Uiso   1.00
O792   O     0.53766   0.93537   0.11022   0.01267  Uiso   1.00
O793   O     0.56150   0.93559   0.09460   0.01267  Uiso   1.00
O794   O     0.58421   0.94762   0.11316   0.01267  Uiso   1.00
O795   O     0.57691   0.94675   0.15094   0.01267  Uiso   1.00
O796   O     0.55159   0.93487   0.14291   0.01267  Uiso   1.00
O797   O     0.53574   0.83363   0.13513   0.01267  Uiso   1.00
O798   O     0.58304   0.83463   0.13288   0.01267  Uiso   1.00
O799   O     0.51433   0.65600   0.17878   0.01267  Uiso   1.00
O800   O     0.51637   0.78737   0.18167   0.01267  Uiso   1.00
O801   O     0.52092   0.91748   0.18172   0.01267  Uiso   1.00
O802   O     0.56173   0.65241   0.17315   0.01267  Uiso   1.00
O803   O     0.56354   0.78351   0.17833   0.01267  Uiso   1.00
O804   O     0.56005   0.91483   0.17956   0.01267  Uiso   1.00
O805   O     0.40138   0.74324   0.14019   0.01267  Uiso   1.00
O806   O     0.40158   0.92438   0.14110   0.01267  Uiso   1.00
O807   O     0.57457   0.84670   0.04457   0.01267  Uiso   1.00
O808   O     0.56045   0.84616   0.01239   0.01267  Uiso   1.00
O809   O     0.54032   0.83186   0.18769   0.01267  Uiso   1.00
O810   O     0.52170   0.85033   0.01500   0.01267  Uiso   1.00
O811   O     0.52374   0.83465   0.05374   0.01267  Uiso   1.00
O812   O     0.54900   0.82034   0.04663   0.01267  Uiso   1.00
O813   O     0.57406   0.61622   0.04383   0.01267  Uiso   1.00
O814   O     0.56059   0.62156   0.01120   0.01267  Uiso   1.00
O815   O     0.53875   0.63267   0.18997   0.01267  Uiso   1.00
O816   O     0.51943   0.61365   0.01549   0.01267  Uiso   1.00
O817   O     0.52328   0.63111   0.05378   0.01267  Uiso   1.00
O818   O     0.54848   0.64207   0.04507   0.01267  Uiso   1.00
O819   O     0.56507   0.73232   0.03113   0.01267  Uiso   1.00
O820   O     0.51686   0.73334   0.03064   0.01267  Uiso   1.00
O821   O     0.58393   0.91087   0.07559   0.01267  Uiso   1.00
O822   O     0.57925   0.78135   0.07774   0.01267  Uiso   1.00
O823   O     0.57822   0.64987   0.08123   0.01267  Uiso   1.00
O824   O     0.54070   0.91203   0.07203   0.01267  Uiso   1.00
O825   O     0.53910   0.78430   0.08128   0.01267  Uiso   1.00
O826   O     0.54037   0.65177   0.08244   0.01267  Uiso   1.00
O827   O     0.50054   0.83442   0.03818   0.01267  Uiso   1.00
O828   O     0.49951   0.63868   0.03983   0.01267  Uiso   1.00
O829   O     0.47376   0.23337   0.04700   0.01267  Uiso   1.00
O830   O     0.46080   0.21641   0.08015   0.01267  Uiso   1.00
O831   O     0.44049   0.22745   0.10473   0.01267  Uiso   1.00
O832   O     0.42045   0.21506   0.07961   0.01267  Uiso   1.00
O833   O     0.42267   0.23339   0.04098   0.01267  Uiso   1.00
O834   O     0.44792   0.24988   0.04759   0.01267  Uiso   1.00
O835   O     0.47360   0.44695   0.04951   0.01267  Uiso   1.00
O836   O     0.46043   0.45456   0.08244   0.01267  Uiso   1.00
O837   O     0.43824   0.43554   0.10246   0.01267  Uiso   1.00
O838   O     0.41766   0.45520   0.07919   0.01267  Uiso   1.00
O839   O     0.42228   0.43391   0.04107   0.01267  Uiso   1.00
O840   O     0.44758   0.42840   0.04920   0.01267  Uiso   1.00
O841   O     0.46321   0.33781   0.06505   0.01267  Uiso   1.00
O842   O     0.41595   0.33371   0.06482   0.01267  Uiso   1.00
O843   O     0.48434   0.15683   0.01931   0.01267  Uiso   1.00
O844   O     0.48236   0.28576   0.01299   0.01267  Uiso   1.00
O845   O     0.47996   0.41708   0.01246   0.01267  Uiso   1.00
O846   O     0.43963   0.15614   0.02266   0.01267  Uiso   1.00
O847   O     0.43772   0.28201   0.01263   0.01267  Uiso   1.00
O848   O     0.43938   0.41390   0.01219   0.01267  Uiso   1.00
O849   O     0.59939   0.23485   0.05660   0.01267  Uiso   1.00
O850   O     0.59816   0.42453   0.05491   0.01267  Uiso   1.00
O851   O     0.42617   0.34559   0.14509   0.01267  Uiso   1.00
O852   O     0.43875   0.34782   0.17900   0.01267  Uiso   1.00
O853   O     0.45987   0.33971   0.00217   0.01267  Uiso   1.00
O854   O     0.48092   0.35101   0.17927   0.01267  Uiso   1.00
O855   O     0.47750   0.34243   0.14069   0.01267  Uiso   1.00
O856   O     0.45199   0.32609   0.14634   0.01267  Uiso   1.00
O857   O     0.42616   0.11649   0.15024   0.01267  Uiso   1.00
O858   O     0.43828   0.13126   0.18410   0.01267  Uiso   1.00
O859   O     0.46137   0.13647   0.00178   0.01267  Uiso   1.00
O860   O     0.48329   0.12100   0.18152   0.01267  Uiso   1.00
O861   O     0.47729   0.12219   0.14317   0.01267  Uiso   1.00
O862   O     0.45208   0.13608   0.15095   0.01267  Uiso   1.00
O863   O     0.43569   0.23376   0.15968   0.01267  Uiso   1.00
O864   O     0.48322   0.23424   0.16163   0.01267  Uiso   1.00
O865   O     0.41439   0.41036   0.11590   0.01267  Uiso   1.00
O866   O     0.41754   0.28017   0.11320   0.01267  Uiso   1.00
O867   O     0.42031   0.14893   0.11301   0.01267  Uiso   1.00
O868   O     0.46113   0.41167   0.11950   0.01267  Uiso   1.00
O869   O     0.46335   0.28126   0.11366   0.01267  Uiso   1.00
O870   O     0.46068   0.14952   0.11386   0.01267  Uiso   1.00
O871   O     0.50106   0.32947   0.15516   0.01267  Uiso   1.00
O872   O     0.50166   0.14318   0.15489   0.01267  Uiso   1.00
O873   O     0.48671   0.53297   0.02673   0.01267  Uiso   1.00
O874   O     0.43802   0.53056   0.02803   0.01267  Uiso   1.00
O875   O     0.45457   0.53483   0.11211   0.01267  Uiso   1.00
O876   O     0.42141   0.53464   0.10960   0.01267  Uiso   1.00
O877   O     0.41327   0.03307   0.12711   0.01267  Uiso   1.00
O878   O     0.46031   0.03147   0.13052   0.01267  Uiso   1.00
O879   O     0.44491   0.03735   0.01008   0.01267  Uiso   1.00
O880   O     0.47765   0.03542   0.00994   0.01267  Uiso   1.00
O881   O     0.51330   0.03329   0.16819   0.01267  Uiso   1.00
O882   O     0.56012   0.03549   0.16473   0.01267  Uiso   1.00
O883   O     0.54459   0.03235   0.08530   0.01267  Uiso   1.00
O884   O     0.57807   0.03363   0.08531   0.01267  Uiso   1.00
O885   O     0.58653   0.53477   0.06797   0.01267  Uiso   1.00
O886   O     0.53963   0.53603   0.06527   0.01267  Uiso   1.00
O887   O     0.55523   0.53143   0.18424   0.01267  Uiso   1.00
O888   O     0.52171   0.53284   0.18512   0.01267  Uiso   1.00
H889   H     0.47836   0.61034   0.09640   0.01267  Uiso   1.00
H890   H     0.51803   0.56025   0.08748   0.01267  Uiso   1.00
H891   H     0.49611   0.60087   0.07473   0.01267  Uiso   1.00
H892   H     0.47928   0.58796   0.13030   0.01267  Uiso   1.00
H893   H     0.50054   0.54786   0.14554   0.01267  Uiso   1.00
H894   H     0.52017   0.53368   0.12346   0.01267  Uiso   1.00
C895   C     0.51084   0.55093   0.11750   0.01267  Uiso   1.00
C896   C     0.50975   0.56565   0.09745   0.01267  Uiso   1.00
C897   C     0.49783   0.58779   0.09009   0.01267  Uiso   1.00
C898   C     0.48823   0.58054   0.12178   0.01267  Uiso   1.00
C899   C     0.49996   0.55859   0.12983   0.01267  Uiso   1.00
N900   N     0.48749   0.59435   0.10234   0.01267  Uiso   1.00
Si901  Si    0.68561   0.84225   0.03009   0.01267  Uiso   1.00
Si902  Si    0.66278   0.81360   0.06027   0.01267  Uiso   1.00
Si903  Si    0.65583   0.84479   0.10339   0.01267  Uiso   1.00
Si904  Si    0.62475   0.84618   0.10399   0.01267  Uiso   1.00
Si905  Si    0.61407   0.81247   0.06182   0.01267  Uiso   1.00
Si906  Si    0.63775   0.85034   0.03538   0.01267  Uiso   1.00
Si907  Si    0.65332   0.61381   0.10670   0.01267  Uiso   1.00
Si908  Si    0.62279   0.61254   0.10363   0.01267  Uiso   1.00
Si909  Si    0.61342   0.65538   0.06086   0.01267  Uiso   1.00
Si910  Si    0.63728   0.60581   0.03693   0.01267  Uiso   1.00
Si911  Si    0.61616   0.72596   0.13282   0.01267  Uiso   1.00
Si912  Si    0.63725   0.75636   0.16392   0.01267  Uiso   1.00
Si913  Si    0.64379   0.72491   0.00809   0.01267  Uiso   1.00
Si914  Si    0.67525   0.72020   0.00453   0.01267  Uiso   1.00
Si915  Si    0.68454   0.75344   0.16158   0.01267  Uiso   1.00
Si916  Si    0.66086   0.72720   0.13492   0.01267  Uiso   1.00
Si917  Si    0.61539   0.95611   0.13338   0.01267  Uiso   1.00
Si918  Si    0.63782   0.91458   0.16251   0.01267  Uiso   1.00
Si919  Si    0.64574   0.95877   0.00524   0.01267  Uiso   1.00
Si920  Si    0.67637   0.95824   0.00332   0.01267  Uiso   1.00
Si921  Si    0.68589   0.91164   0.16112   0.01267  Uiso   1.00
Si922  Si    0.66224   0.95289   0.13494   0.01267  Uiso   1.00
Si923  Si    0.71519   0.33982   0.16571   0.01267  Uiso   1.00
Si924  Si    0.73830   0.31154   0.13588   0.01267  Uiso   1.00
Si925  Si    0.74378   0.34875   0.09231   0.01267  Uiso   1.00
Si926  Si    0.77535   0.34962   0.09268   0.01267  Uiso   1.00
Si927  Si    0.78542   0.31200   0.13485   0.01267  Uiso   1.00
Si928  Si    0.76293   0.33679   0.16427   0.01267  Uiso   1.00
Si929  Si    0.71525   0.11132   0.16325   0.01267  Uiso   1.00
Si930  Si    0.73833   0.15455   0.13438   0.01267  Uiso   1.00
Si931  Si    0.74591   0.10962   0.09171   0.01267  Uiso   1.00
Si932  Si    0.77663   0.10913   0.09336   0.01267  Uiso   1.00
Si933  Si    0.78622   0.15438   0.13533   0.01267  Uiso   1.00
Si934  Si    0.76257   0.11429   0.16166   0.01267  Uiso   1.00
Si935  Si    0.78502   0.22684   0.06654   0.01267  Uiso   1.00
Si936  Si    0.76174   0.25522   0.03712   0.01267  Uiso   1.00
Si937  Si    0.75600   0.21915   0.19322   0.01267  Uiso   1.00
Si938  Si    0.72432   0.21829   0.19315   0.01267  Uiso   1.00
Si939  Si    0.71441   0.25572   0.03571   0.01267  Uiso   1.00
Si940  Si    0.73677   0.22759   0.06509   0.01267  Uiso   1.00
Si941  Si    0.78450   0.45707   0.06266   0.01267  Uiso   1.00
Si942  Si    0.76165   0.41398   0.03388   0.01267  Uiso   1.00
Si943  Si    0.75388   0.45421   0.19068   0.01267  Uiso   1.00
Si944  Si    0.72311   0.45652   0.19276   0.01267  Uiso   1.00
Si945  Si    0.71366   0.41346   0.03542   0.01267  Uiso   1.00
Si946  Si    0.73740   0.45749   0.06093   0.01267  Uiso   1.00
Si947  Si    0.71403   0.72581   0.16664   0.01267  Uiso   1.00
Si948  Si    0.73718   0.75373   0.13673   0.01267  Uiso   1.00
Si949  Si    0.74407   0.72051   0.09376   0.01267  Uiso   1.00
Si950  Si    0.77531   0.72011   0.09205   0.01267  Uiso   1.00
Si951  Si    0.78627   0.75573   0.13380   0.01267  Uiso   1.00
Si952  Si    0.76312   0.72372   0.16221   0.01267  Uiso   1.00
Si953  Si    0.71522   0.95587   0.16240   0.01267  Uiso   1.00
Si954  Si    0.73766   0.91329   0.13321   0.01267  Uiso   1.00
Si955  Si    0.74614   0.95420   0.09068   0.01267  Uiso   1.00
Si956  Si    0.77689   0.95655   0.09215   0.01267  Uiso   1.00
Si957  Si    0.78641   0.91313   0.13451   0.01267  Uiso   1.00
Si958  Si    0.76218   0.95772   0.15950   0.01267  Uiso   1.00
Si959  Si    0.78425   0.84128   0.06354   0.01267  Uiso   1.00
Si960  Si    0.76226   0.81123   0.03372   0.01267  Uiso   1.00
Si961  Si    0.75608   0.84424   0.18947   0.01267  Uiso   1.00
Si962  Si    0.72487   0.84689   0.19162   0.01267  Uiso   1.00
Si963  Si    0.73824   0.83795   0.06343   0.01267  Uiso   1.00
Si964  Si    0.78433   0.61201   0.06209   0.01267  Uiso   1.00
Si965  Si    0.76208   0.65359   0.03289   0.01267  Uiso   1.00
Si966  Si    0.75410   0.60952   0.18974   0.01267  Uiso   1.00
Si967  Si    0.72355   0.60919   0.19246   0.01267  Uiso   1.00
Si968  Si    0.73812   0.61528   0.06135   0.01267  Uiso   1.00
Si969  Si    0.68470   0.22929   0.02975   0.01267  Uiso   1.00
Si970  Si    0.66142   0.25959   0.05988   0.01267  Uiso   1.00
Si971  Si    0.65630   0.21824   0.10313   0.01267  Uiso   1.00
Si972  Si    0.62475   0.21795   0.10261   0.01267  Uiso   1.00
Si973  Si    0.61461   0.25459   0.06060   0.01267  Uiso   1.00
Si974  Si    0.63712   0.23048   0.03100   0.01267  Uiso   1.00
Si975  Si    0.68454   0.45578   0.03236   0.01267  Uiso   1.00
Si976  Si    0.65350   0.45921   0.10399   0.01267  Uiso   1.00
Si977  Si    0.62292   0.45901   0.10175   0.01267  Uiso   1.00
Si978  Si    0.61358   0.41176   0.05996   0.01267  Uiso   1.00
Si979  Si    0.63687   0.45258   0.03284   0.01267  Uiso   1.00
Si980  Si    0.61489   0.34132   0.12827   0.01267  Uiso   1.00
Si981  Si    0.63816   0.31292   0.15752   0.01267  Uiso   1.00
Si982  Si    0.64397   0.34608   0.00155   0.01267  Uiso   1.00
Si983  Si    0.67565   0.34841   0.00181   0.01267  Uiso   1.00
Si984  Si    0.68566   0.31349   0.15932   0.01267  Uiso   1.00
Si985  Si    0.66326   0.34015   0.12998   0.01267  Uiso   1.00
Si986  Si    0.61536   0.11047   0.13276   0.01267  Uiso   1.00
Si987  Si    0.63812   0.15440   0.16122   0.01267  Uiso   1.00
Si988  Si    0.64602   0.11509   0.00448   0.01267  Uiso   1.00
Si989  Si    0.67662   0.11234   0.00309   0.01267  Uiso   1.00
Si990  Si    0.68628   0.15524   0.16035   0.01267  Uiso   1.00
Si991  Si    0.66256   0.10986   0.13460   0.01267  Uiso   1.00
Si992  Si    0.71557   0.81298   0.03426   0.01267  Uiso   1.00
Si993  Si    0.71464   0.65490   0.03477   0.01267  Uiso   1.00
Si994  Si    0.68492   0.60995   0.03394   0.01267  Uiso   1.00
Si995  Si    0.66110   0.41691   0.06129   0.01267  Uiso   1.00
Al996  Al    0.66188   0.65046   0.06330   0.01267  Uiso   1.00
O997   O     0.67568   0.84207   0.04861   0.01267  Uiso   1.00
O998   O     0.66408   0.83937   0.08312   0.01267  Uiso   1.00
O999   O     0.64020   0.84616   0.09845   0.01267  Uiso   1.00
O1000  O     0.61593   0.83841   0.08432   0.01267  Uiso   1.00
O1001  O     0.62378   0.85166   0.04697   0.01267  Uiso   1.00
O1002  O     0.64980   0.84927   0.05087   0.01267  Uiso   1.00
O1003  O     0.67596   0.61481   0.05315   0.01267  Uiso   1.00
O1004  O     0.66328   0.63255   0.08899   0.01267  Uiso   1.00
O1005  O     0.63821   0.63325   0.10155   0.01267  Uiso   1.00
O1006  O     0.61542   0.62562   0.08292   0.01267  Uiso   1.00
O1007  O     0.62216   0.61659   0.04471   0.01267  Uiso   1.00
O1008  O     0.64751   0.61507   0.05451   0.01267  Uiso   1.00
O1009  O     0.66188   0.73502   0.05882   0.01267  Uiso   1.00
O1010  O     0.61719   0.73364   0.06075   0.01267  Uiso   1.00
O1011  O     0.68473   0.91280   0.01843   0.01267  Uiso   1.00
O1012  O     0.68288   0.78221   0.01461   0.01267  Uiso   1.00
O1013  O     0.67939   0.65082   0.01488   0.01267  Uiso   1.00
O1014  O     0.63838   0.91857   0.02261   0.01267  Uiso   1.00
O1015  O     0.63810   0.78664   0.02078   0.01267  Uiso   1.00
O1016  O     0.63988   0.65518   0.01820   0.01267  Uiso   1.00
O1017  O     0.79895   0.82722   0.05552   0.01267  Uiso   1.00
O1018  O     0.79797   0.64633   0.05521   0.01267  Uiso   1.00
O1019  O     0.62556   0.71887   0.15202   0.01267  Uiso   1.00
O1020  O     0.63734   0.72780   0.18616   0.01267  Uiso   1.00
O1021  O     0.65961   0.73234   0.00610   0.01267  Uiso   1.00
O1022  O     0.67963   0.71593   0.18143   0.01267  Uiso   1.00
O1023  O     0.67601   0.72869   0.14268   0.01267  Uiso   1.00
O1024  O     0.65139   0.74236   0.15356   0.01267  Uiso   1.00
O1025  O     0.62602   0.95211   0.15107   0.01267  Uiso   1.00
O1026  O     0.63842   0.94513   0.18447   0.01267  Uiso   1.00
O1027  O     0.66103   0.93507   0.00364   0.01267  Uiso   1.00
O1028  O     0.68220   0.95145   0.18112   0.01267  Uiso   1.00
O1029  O     0.67706   0.93936   0.14299   0.01267  Uiso   1.00
O1030  O     0.65179   0.92743   0.15147   0.01267  Uiso   1.00
O1031  O     0.63463   0.83589   0.16351   0.01267  Uiso   1.00
O1032  O     0.68314   0.83306   0.16445   0.01267  Uiso   1.00
O1033  O     0.61592   0.65609   0.12092   0.01267  Uiso   1.00
O1034  O     0.62177   0.78484   0.11883   0.01267  Uiso   1.00
O1035  O     0.62075   0.91604   0.11426   0.01267  Uiso   1.00
O1036  O     0.65801   0.65269   0.12668   0.01267  Uiso   1.00
O1037  O     0.65889   0.78135   0.11755   0.01267  Uiso   1.00
O1038  O     0.66003   0.91306   0.11450   0.01267  Uiso   1.00
O1039  O     0.69966   0.73304   0.15658   0.01267  Uiso   1.00
O1040  O     0.70128   0.92362   0.15570   0.01267  Uiso   1.00
O1041  O     0.72644   0.34312   0.14879   0.01267  Uiso   1.00
O1042  O     0.73903   0.35220   0.11517   0.01267  Uiso   1.00
O1043  O     0.75958   0.33962   0.09095   0.01267  Uiso   1.00
O1044  O     0.77982   0.35087   0.11557   0.01267  Uiso   1.00
O1045  O     0.77737   0.33585   0.15425   0.01267  Uiso   1.00
O1046  O     0.75209   0.31933   0.14752   0.01267  Uiso   1.00
O1047  O     0.72649   0.12021   0.14655   0.01267  Uiso   1.00
O1048  O     0.73883   0.11954   0.11294   0.01267  Uiso   1.00
O1049  O     0.76126   0.13171   0.09339   0.01267  Uiso   1.00
O1050  O     0.78232   0.11284   0.11566   0.01267  Uiso   1.00
O1051  O     0.77740   0.12841   0.15378   0.01267  Uiso   1.00
O1052  O     0.75225   0.14438   0.14566   0.01267  Uiso   1.00
O1053  O     0.73551   0.23348   0.13177   0.01267  Uiso   1.00
O1054  O     0.78352   0.23273   0.13135   0.01267  Uiso   1.00
O1055  O     0.71502   0.41015   0.17746   0.01267  Uiso   1.00
O1056  O     0.71776   0.27968   0.18114   0.01267  Uiso   1.00
O1057  O     0.71978   0.14838   0.18345   0.01267  Uiso   1.00
O1058  O     0.76032   0.41021   0.17321   0.01267  Uiso   1.00
O1059  O     0.76246   0.28235   0.18192   0.01267  Uiso   1.00
O1060  O     0.76050   0.15012   0.18290   0.01267  Uiso   1.00
O1061  O     0.60072   0.33011   0.13871   0.01267  Uiso   1.00
O1062  O     0.60159   0.14229   0.14054   0.01267  Uiso   1.00
O1063  O     0.77397   0.22459   0.04934   0.01267  Uiso   1.00
O1064  O     0.76100   0.21841   0.01589   0.01267  Uiso   1.00
O1065  O     0.74013   0.22621   0.19221   0.01267  Uiso   1.00
O1066  O     0.71935   0.21892   0.01576   0.01267  Uiso   1.00
O1067  O     0.72256   0.22717   0.05440   0.01267  Uiso   1.00
O1068  O     0.74811   0.24252   0.04887   0.01267  Uiso   1.00
O1069  O     0.77359   0.45009   0.04532   0.01267  Uiso   1.00
O1070  O     0.76144   0.44091   0.01136   0.01267  Uiso   1.00
O1071  O     0.73846   0.43394   0.19315   0.01267  Uiso   1.00
O1072  O     0.71704   0.45039   0.01474   0.01267  Uiso   1.00
O1073  O     0.72247   0.44599   0.05302   0.01267  Uiso   1.00
O1074  O     0.74767   0.43158   0.04433   0.01267  Uiso   1.00
O1075  O     0.76385   0.33442   0.03412   0.01267  Uiso   1.00
O1076  O     0.71702   0.33506   0.03340   0.01267  Uiso   1.00
O1077  O     0.78481   0.15787   0.07889   0.01267  Uiso   1.00
O1078  O     0.78252   0.28864   0.08144   0.01267  Uiso   1.00
O1079  O     0.77949   0.41968   0.08260   0.01267  Uiso   1.00
O1080  O     0.73886   0.15540   0.07517   0.01267  Uiso   1.00
O1081  O     0.73683   0.28555   0.08179   0.01267  Uiso   1.00
O1082  O     0.73944   0.41786   0.08163   0.01267  Uiso   1.00
O1083  O     0.69902   0.24052   0.03968   0.01267  Uiso   1.00
O1084  O     0.69827   0.42423   0.04071   0.01267  Uiso   1.00
O1085  O     0.72502   0.72359   0.14934   0.01267  Uiso   1.00
O1086  O     0.73663   0.71987   0.11497   0.01267  Uiso   1.00
O1087  O     0.75978   0.72517   0.09735   0.01267  Uiso   1.00
O1088  O     0.78380   0.72323   0.11220   0.01267  Uiso   1.00
O1089  O     0.77680   0.72140   0.15008   0.01267  Uiso   1.00
O1090  O     0.75099   0.73498   0.14709   0.01267  Uiso   1.00
O1091  O     0.72551   0.94999   0.14416   0.01267  Uiso   1.00
O1092  O     0.73766   0.93537   0.11022   0.01267  Uiso   1.00
O1093  O     0.76150   0.93559   0.09460   0.01267  Uiso   1.00
O1094  O     0.78421   0.94762   0.11316   0.01267  Uiso   1.00
O1095  O     0.77691   0.94675   0.15094   0.01267  Uiso   1.00
O1096  O     0.75159   0.93487   0.14291   0.01267  Uiso   1.00
O1097  O     0.73574   0.83363   0.13513   0.01267  Uiso   1.00
O1098  O     0.78304   0.83463   0.13288   0.01267  Uiso   1.00
O1099  O     0.71433   0.65600   0.17878   0.01267  Uiso   1.00
O1100  O     0.71637   0.78737   0.18167   0.01267  Uiso   1.00
O1101  O     0.72092   0.91748   0.18172   0.01267  Uiso   1.00
O1102  O     0.76173   0.65241   0.17315   0.01267  Uiso   1.00
O1103  O     0.76354   0.78351   0.17833   0.01267  Uiso   1.00
O1104  O     0.76005   0.91483   0.17956   0.01267  Uiso   1.00
O1105  O     0.60138   0.74324   0.14019   0.01267  Uiso   1.00
O1106  O     0.60158   0.92438   0.14110   0.01267  Uiso   1.00
O1107  O     0.77457   0.84670   0.04457   0.01267  Uiso   1.00
O1108  O     0.76045   0.84616   0.01239   0.01267  Uiso   1.00
O1109  O     0.74032   0.83186   0.18769   0.01267  Uiso   1.00
O1110  O     0.72170   0.85033   0.01500   0.01267  Uiso   1.00
O1111  O     0.72374   0.83465   0.05374   0.01267  Uiso   1.00
O1112  O     0.74900   0.82034   0.04663   0.01267  Uiso   1.00
O1113  O     0.77406   0.61622   0.04383   0.01267  Uiso   1.00
O1114  O     0.76059   0.62156   0.01120   0.01267  Uiso   1.00
O1115  O     0.73875   0.63267   0.18997   0.01267  Uiso   1.00
O1116  O     0.71943   0.61365   0.01549   0.01267  Uiso   1.00
O1117  O     0.72328   0.63111   0.05378   0.01267  Uiso   1.00
O1118  O     0.74848   0.64207   0.04507   0.01267  Uiso   1.00
O1119  O     0.76507   0.73232   0.03113   0.01267  Uiso   1.00
O1120  O     0.71686   0.73334   0.03064   0.01267  Uiso   1.00
O1121  O     0.78393   0.91087   0.07559   0.01267  Uiso   1.00
O1122  O     0.77925   0.78135   0.07774   0.01267  Uiso   1.00
O1123  O     0.77822   0.64987   0.08123   0.01267  Uiso   1.00
O1124  O     0.74070   0.91203   0.07203   0.01267  Uiso   1.00
O1125  O     0.73910   0.78430   0.08128   0.01267  Uiso   1.00
O1126  O     0.74037   0.65177   0.08244   0.01267  Uiso   1.00
O1127  O     0.70054   0.83442   0.03818   0.01267  Uiso   1.00
O1128  O     0.69951   0.63868   0.03983   0.01267  Uiso   1.00
O1129  O     0.67376   0.23337   0.04700   0.01267  Uiso   1.00
O1130  O     0.66080   0.21641   0.08015   0.01267  Uiso   1.00
O1131  O     0.64049   0.22745   0.10473   0.01267  Uiso   1.00
O1132  O     0.62045   0.21506   0.07961   0.01267  Uiso   1.00
O1133  O     0.62267   0.23339   0.04098   0.01267  Uiso   1.00
O1134  O     0.64792   0.24988   0.04759   0.01267  Uiso   1.00
O1135  O     0.67360   0.44695   0.04951   0.01267  Uiso   1.00
O1136  O     0.66043   0.45456   0.08244   0.01267  Uiso   1.00
O1137  O     0.63824   0.43554   0.10246   0.01267  Uiso   1.00
O1138  O     0.61766   0.45520   0.07919   0.01267  Uiso   1.00
O1139  O     0.62228   0.43391   0.04107   0.01267  Uiso   1.00
O1140  O     0.64758   0.42840   0.04920   0.01267  Uiso   1.00
O1141  O     0.66321   0.33781   0.06505   0.01267  Uiso   1.00
O1142  O     0.61595   0.33371   0.06482   0.01267  Uiso   1.00
O1143  O     0.68434   0.15683   0.01931   0.01267  Uiso   1.00
O1144  O     0.68236   0.28576   0.01299   0.01267  Uiso   1.00
O1145  O     0.67996   0.41708   0.01246   0.01267  Uiso   1.00
O1146  O     0.63963   0.15614   0.02266   0.01267  Uiso   1.00
O1147  O     0.63772   0.28201   0.01263   0.01267  Uiso   1.00
O1148  O     0.63938   0.41390   0.01219   0.01267  Uiso   1.00
O1149  O     0.79939   0.23485   0.05660   0.01267  Uiso   1.00
O1150  O     0.79816   0.42453   0.05491   0.01267  Uiso   1.00
O1151  O     0.62617   0.34559   0.14509   0.01267  Uiso   1.00
O1152  O     0.63875   0.34782   0.17900   0.01267  Uiso   1.00
O1153  O     0.65987   0.33971   0.00217   0.01267  Uiso   1.00
O1154  O     0.68092   0.35101   0.17927   0.01267  Uiso   1.00
O1155  O     0.67750   0.34243   0.14069   0.01267  Uiso   1.00
O1156  O     0.65199   0.32609   0.14634   0.01267  Uiso   1.00
O1157  O     0.62616   0.11649   0.15024   0.01267  Uiso   1.00
O1158  O     0.63828   0.13126   0.18410   0.01267  Uiso   1.00
O1159  O     0.66137   0.13647   0.00178   0.01267  Uiso   1.00
O1160  O     0.68329   0.12100   0.18152   0.01267  Uiso   1.00
O1161  O     0.67729   0.12219   0.14317   0.01267  Uiso   1.00
O1162  O     0.65208   0.13608   0.15095   0.01267  Uiso   1.00
O1163  O     0.63569   0.23376   0.15968   0.01267  Uiso   1.00
O1164  O     0.68322   0.23424   0.16163   0.01267  Uiso   1.00
O1165  O     0.61439   0.41036   0.11590   0.01267  Uiso   1.00
O1166  O     0.61754   0.28017   0.11320   0.01267  Uiso   1.00
O1167  O     0.62031   0.14893   0.11301   0.01267  Uiso   1.00
O1168  O     0.66113   0.41167   0.11950   0.01267  Uiso   1.00
O1169  O     0.66335   0.28126   0.11366   0.01267  Uiso   1.00
O1170  O     0.66068   0.14952   0.11386   0.01267  Uiso   1.00
O1171  O     0.70106   0.32947   0.15516   0.01267  Uiso   1.00
O1172  O     0.70166   0.14318   0.15489   0.01267  Uiso   1.00
O1173  O     0.68671   0.53297   0.02673   0.01267  Uiso   1.00
O1174  O     0.63802   0.53056   0.02803   0.01267  Uiso   1.00
O1175  O     0.65457   0.53483   0.11211   0.01267  Uiso   1.00
O1176  O     0.62141   0.53464   0.10960   0.01267  Uiso   1.00
O1177  O     0.61327   0.03307   0.12711   0.01267  Uiso   1.00
O1178  O     0.66031   0.03147   0.13052   0.01267  Uiso   1.00
O1179  O     0.64491   0.03735   0.01008   0.01267  Uiso   1.00
O1180  O     0.67765   0.03542   0.00994   0.01267  Uiso   1.00
O1181  O     0.71330   0.03329   0.16819   0.01267  Uiso   1.00
O1182  O     0.76012   0.03549   0.16473   0.01267  Uiso   1.00
O1183  O     0.74459   0.03235   0.08530   0.01267  Uiso   1.00
O1184  O     0.77807   0.03363   0.08531   0.01267  Uiso   1.00
O1185  O     0.78653   0.53477   0.06797   0.01267  Uiso   1.00
O1186  O     0.73963   0.53603   0.06527   0.01267  Uiso   1.00
O1187  O     0.75523   0.53143   0.18424   0.01267  Uiso   1.00
O1188  O     0.72171   0.53284   0.18512   0.01267  Uiso   1.00
H1189  H     0.67836   0.61034   0.09640   0.01267  Uiso   1.00
H1190  H     0.71803   0.56025   0.08748   0.01267  Uiso   1.00
H1191  H     0.69611   0.60087   0.07473   0.01267  Uiso   1.00
H1192  H     0.67928   0.58796   0.13030   0.01267  Uiso   1.00
H1193  H     0.70054   0.54786   0.14554   0.01267  Uiso   1.00
H1194  H     0.72017   0.53368   0.12346   0.01267  Uiso   1.00
C1195  C     0.71084   0.55093   0.11750   0.01267  Uiso   1.00
C1196  C     0.70975   0.56565   0.09745   0.01267  Uiso   1.00
C1197  C     0.69783   0.58779   0.09009   0.01267  Uiso   1.00
C1198  C     0.68823   0.58054   0.12178   0.01267  Uiso   1.00
C1199  C     0.69996   0.55859   0.12983   0.01267  Uiso   1.00
N1200  N     0.68749   0.59435   0.10234   0.01267  Uiso   1.00
Si1201 Si    0.88561   0.84225   0.03009   0.01267  Uiso   1.00
Si1202 Si    0.86278   0.81360   0.06027   0.01267  Uiso   1.00
Si1203 Si    0.85583   0.84479   0.10339   0.01267  Uiso   1.00
Si1204 Si    0.82475   0.84618   0.10399   0.01267  Uiso   1.00
Si1205 Si    0.81407   0.81247   0.06182   0.01267  Uiso   1.00
Si1206 Si    0.83775   0.85034   0.03538   0.01267  Uiso   1.00
Si1207 Si    0.85332   0.61381   0.10670   0.01267  Uiso   1.00
Si1208 Si    0.82279   0.61254   0.10363   0.01267  Uiso   1.00
Si1209 Si    0.81342   0.65538   0.06086   0.01267  Uiso   1.00
Si1210 Si    0.83728   0.60581   0.03693   0.01267  Uiso   1.00
Si1211 Si    0.81616   0.72596   0.13282   0.01267  Uiso   1.00
Si1212 Si    0.83725   0.75636   0.16392   0.01267  Uiso   1.00
Si1213 Si    0.84379   0.72491   0.00809   0.01267  Uiso   1.00
Si1214 Si    0.87525   0.72020   0.00453   0.01267  Uiso   1.00
Si1215 Si    0.88454   0.75344   0.16158   0.01267  Uiso   1.00
Si1216 Si    0.86086   0.72720   0.13492   0.01267  Uiso   1.00
Si1217 Si    0.81539   0.95611   0.13338   0.01267  Uiso   1.00
Si1218 Si    0.83782   0.91458   0.16251   0.01267  Uiso   1.00
Si1219 Si    0.84574   0.95877   0.00524   0.01267  Uiso   1.00
Si1220 Si    0.87637   0.95824   0.00332   0.01267  Uiso   1.00
Si1221 Si    0.88589   0.91164   0.16112   0.01267  Uiso   1.00
Si1222 Si    0.86224   0.95289   0.13494   0.01267  Uiso   1.00
Si1223 Si    0.91519   0.33982   0.16571   0.01267  Uiso   1.00
Si1224 Si    0.93830   0.31154   0.13588   0.01267  Uiso   1.00
Si1225 Si    0.94378   0.34875   0.09231   0.01267  Uiso   1.00
Si1226 Si    0.97535   0.34962   0.09268   0.01267  Uiso   1.00
Si1227 Si    0.98542   0.31200   0.13485   0.01267  Uiso   1.00
Si1228 Si    0.96293   0.33679   0.16427   0.01267  Uiso   1.00
Si1229 Si    0.91525   0.11132   0.16325   0.01267  Uiso   1.00
Si1230 Si    0.93833   0.15455   0.13438   0.01267  Uiso   1.00
Si1231 Si    0.94591   0.10962   0.09171   0.01267  Uiso   1.00
Si1232 Si    0.97663   0.10913   0.09336   0.01267  Uiso   1.00
Si1233 Si    0.98622   0.15438   0.13533   0.01267  Uiso   1.00
Si1234 Si    0.96257   0.11429   0.16166   0.01267  Uiso   1.00
Si1235 Si    0.98502   0.22684   0.06654   0.01267  Uiso   1.00
Si1236 Si    0.96174   0.25522   0.03712   0.01267  Uiso   1.00
Si1237 Si    0.95600   0.21915   0.19322   0.01267  Uiso   1.00
Si1238 Si    0.92432   0.21829   0.19315   0.01267  Uiso   1.00
Si1239 Si    0.91441   0.25572   0.03571   0.01267  Uiso   1.00
Si1240 Si    0.93677   0.22759   0.06509   0.01267  Uiso   1.00
Si1241 Si    0.98450   0.45707   0.06266   0.01267  Uiso   1.00
Si1242 Si    0.96165   0.41398   0.03388   0.01267  Uiso   1.00
Si1243 Si    0.95388   0.45421   0.19068   0.01267  Uiso   1.00
Si1244 Si    0.92311   0.45652   0.19276   0.01267  Uiso   1.00
Si1245 Si    0.91366   0.41346   0.03542   0.01267  Uiso   1.00
Si1246 Si    0.93740   0.45749   0.06093   0.01267  Uiso   1.00
Si1247 Si    0.91403   0.72581   0.16664   0.01267  Uiso   1.00
Si1248 Si    0.93718   0.75373   0.13673   0.01267  Uiso   1.00
Si1249 Si    0.94407   0.72051   0.09376   0.01267  Uiso   1.00
Si1250 Si    0.97531   0.72011   0.09205   0.01267  Uiso   1.00
Si1251 Si    0.98627   0.75573   0.13380   0.01267  Uiso   1.00
Si1252 Si    0.96312   0.72372   0.16221   0.01267  Uiso   1.00
Si1253 Si    0.91522   0.95587   0.16240   0.01267  Uiso   1.00
Si1254 Si    0.93766   0.91329   0.13321   0.01267  Uiso   1.00
Si1255 Si    0.94614   0.95420   0.09068   0.01267  Uiso   1.00
Si1256 Si    0.97689   0.95655   0.09215   0.01267  Uiso   1.00
Si1257 Si    0.98641   0.91313   0.13451   0.01267  Uiso   1.00
Si1258 Si    0.96218   0.95772   0.15950   0.01267  Uiso   1.00
Si1259 Si    0.98425   0.84128   0.06354   0.01267  Uiso   1.00
Si1260 Si    0.96226   0.81123   0.03372   0.01267  Uiso   1.00
Si1261 Si    0.95608   0.84424   0.18947   0.01267  Uiso   1.00
Si1262 Si    0.92487   0.84689   0.19162   0.01267  Uiso   1.00
Si1263 Si    0.93824   0.83795   0.06343   0.01267  Uiso   1.00
Si1264 Si    0.98433   0.61201   0.06209   0.01267  Uiso   1.00
Si1265 Si    0.96208   0.65359   0.03289   0.01267  Uiso   1.00
Si1266 Si    0.95410   0.60952   0.18974   0.01267  Uiso   1.00
Si1267 Si    0.92355   0.60919   0.19246   0.01267  Uiso   1.00
Si1268 Si    0.93812   0.61528   0.06135   0.01267  Uiso   1.00
Si1269 Si    0.88470   0.22929   0.02975   0.01267  Uiso   1.00
Si1270 Si    0.86142   0.25959   0.05988   0.01267  Uiso   1.00
Si1271 Si    0.85630   0.21824   0.10313   0.01267  Uiso   1.00
Si1272 Si    0.82475   0.21795   0.10261   0.01267  Uiso   1.00
Si1273 Si    0.81461   0.25459   0.06060   0.01267  Uiso   1.00
Si1274 Si    0.83712   0.23048   0.03100   0.01267  Uiso   1.00
Si1275 Si    0.88454   0.45578   0.03236   0.01267  Uiso   1.00
Si1276 Si    0.85350   0.45921   0.10399   0.01267  Uiso   1.00
Si1277 Si    0.82292   0.45901   0.10175   0.01267  Uiso   1.00
Si1278 Si    0.81358   0.41176   0.05996   0.01267  Uiso   1.00
Si1279 Si    0.83687   0.45258   0.03284   0.01267  Uiso   1.00
Si1280 Si    0.81489   0.34132   0.12827   0.01267  Uiso   1.00
Si1281 Si    0.83816   0.31292   0.15752   0.01267  Uiso   1.00
Si1282 Si    0.84397   0.34608   0.00155   0.01267  Uiso   1.00
Si1283 Si    0.87565   0.34841   0.00181   0.01267  Uiso   1.00
Si1284 Si    0.88566   0.31349   0.15932   0.01267  Uiso   1.00
Si1285 Si    0.86326   0.34015   0.12998   0.01267  Uiso   1.00
Si1286 Si    0.81536   0.11047   0.13276   0.01267  Uiso   1.00
Si1287 Si    0.83812   0.15440   0.16122   0.01267  Uiso   1.00
Si1288 Si    0.84602   0.11509   0.00448   0.01267  Uiso   1.00
Si1289 Si    0.87662   0.11234   0.00309   0.01267  Uiso   1.00
Si1290 Si    0.88628   0.15524   0.16035   0.01267  Uiso   1.00
Si1291 Si    0.86256   0.10986   0.13460   0.01267  Uiso   1.00
Si1292 Si    0.91557   0.81298   0.03426   0.01267  Uiso   1.00
Si1293 Si    0.91464   0.65490   0.03477   0.01267  Uiso   1.00
Si1294 Si    0.88492   0.60995   0.03394   0.01267  Uiso   1.00
Si1295 Si    0.86110   0.41691   0.06129   0.01267  Uiso   1.00
Al1296 Al    0.86188   0.65046   0.06330   0.01267  Uiso   1.00
O1297  O     0.87568   0.84207   0.04861   0.01267  Uiso   1.00
O1298  O     0.86408   0.83937   0.08312   0.01267  Uiso   1.00
O1299  O     0.84020   0.84616   0.09845   0.01267  Uiso   1.00
O1300  O     0.81593   0.83841   0.08432   0.01267  Uiso   1.00
O1301  O     0.82378   0.85166   0.04697   0.01267  Uiso   1.00
O1302  O     0.84980   0.84927   0.05087   0.01267  Uiso   1.00
O1303  O     0.87596   0.61481   0.05315   0.01267  Uiso   1.00
O1304  O     0.86328   0.63255   0.08899   0.01267  Uiso   1.00
O1305  O     0.83821   0.63325   0.10155   0.01267  Uiso   1.00
O1306  O     0.81542   0.62562   0.08292   0.01267  Uiso   1.00
O1307  O     0.82216   0.61659   0.04471   0.01267  Uiso   1.00
O1308  O     0.84751   0.61507   0.05451   0.01267  Uiso   1.00
O1309  O     0.86188   0.73502   0.05882   0.01267  Uiso   1.00
O1310  O     0.81719   0.73364   0.06075   0.01267  Uiso   1.00
O1311  O     0.88473   0.91280   0.01843   0.01267  Uiso   1.00
O1312  O     0.88288   0.78221   0.01461   0.01267  Uiso   1.00
O1313  O     0.87939   0.65082   0.01488   0.01267  Uiso   1.00
O1314  O     0.83838   0.91857   0.02261   0.01267  Uiso   1.00
O1315  O     0.83810   0.78664   0.02078   0.01267  Uiso   1.00
O1316  O     0.83988   0.65518   0.01820   0.01267  Uiso   1.00
O1317  O     0.99895   0.82722   0.05552   0.01267  Uiso   1.00
O1318  O     0.99797   0.64633   0.05521   0.01267  Uiso   1.00
O1319  O     0.82556   0.71887   0.15202   0.01267  Uiso   1.00
O1320  O     0.83734   0.72780   0.18616   0.01267  Uiso   1.00
O1321  O     0.85961   0.73234   0.00610   0.01267  Uiso   1.00
O1322  O     0.87963   0.71593   0.18143   0.01267  Uiso   1.00
O1323  O     0.87601   0.72869   0.14268   0.01267  Uiso   1.00
O1324  O     0.85139   0.74236   0.15356   0.01267  Uiso   1.00
O1325  O     0.82602   0.95211   0.15107   0.01267  Uiso   1.00
O1326  O     0.83842   0.94513   0.18447   0.01267  Uiso   1.00
O1327  O     0.86103   0.93507   0.00364   0.01267  Uiso   1.00
O1328  O     0.88220   0.95145   0.18112   0.01267  Uiso   1.00
O1329  O     0.87706   0.93936   0.14299   0.01267  Uiso   1.00
O1330  O     0.85179   0.92743   0.15147   0.01267  Uiso   1.00
O1331  O     0.83463   0.83589   0.16351   0.01267  Uiso   1.00
O1332  O     0.88314   0.83306   0.16445   0.01267  Uiso   1.00
O1333  O     0.81592   0.65609   0.12092   0.01267  Uiso   1.00
O1334  O     0.82177   0.78484   0.11883   0.01267  Uiso   1.00
O1335  O     0.82075   0.91604   0.11426   0.01267  Uiso   1.00
O1336  O     0.85801   0.65269   0.12668   0.01267  Uiso   1.00
O1337  O     0.85889   0.78135   0.11755   0.01267  Uiso   1.00
O1338  O     0.86003   0.91306   0.11450   0.01267  Uiso   1.00
O1339  O     0.89966   0.73304   0.15658   0.01267  Uiso   1.00
O1340  O     0.90128   0.92362   0.15570   0.01267  Uiso   1.00
O1341  O     0.92644   0.34312   0.14879   0.01267  Uiso   1.00
O1342  O     0.93903   0.35220   0.11517   0.01267  Uiso   1.00
O1343  O     0.95958   0.33962   0.09095   0.01267  Uiso   1.00
O1344  O     0.97982   0.35087   0.11557   0.01267  Uiso   1.00
O1345  O     0.97737   0.33585   0.15425   0.01267  Uiso   1.00
O1346  O     0.95209   0.31933   0.14752   0.01267  Uiso   1.00
O1347  O     0.92649   0.12021   0.14655   0.01267  Uiso   1.00
O1348  O     0.93883   0.11954   0.11294   0.01267  Uiso   1.00
O1349  O     0.96126   0.13171   0.09339   0.01267  Uiso   1.00
O1350  O     0.98232   0.11284   0.11566   0.01267  Uiso   1.00
O1351  O     0.97740   0.12841   0.15378   0.01267  Uiso   1.00
O1352  O     0.95225   0.14438   0.14566   0.01267  Uiso   1.00
O1353  O     0.93551   0.23348   0.13177   0.01267  Uiso   1.00
O1354  O     0.98352   0.23273   0.13135   0.01267  Uiso   1.00
O1355  O     0.91502   0.41015   0.17746   0.01267  Uiso   1.00
O1356  O     0.91776   0.27968   0.18114   0.01267  Uiso   1.00
O1357  O     0.91978   0.14838   0.18345   0.01267  Uiso   1.00
O1358  O     0.96032   0.41021   0.17321   0.01267  Uiso   1.00
O1359  O     0.96246   0.28235   0.18192   0.01267  Uiso   1.00
O1360  O     0.96050   0.15012   0.18290   0.01267  Uiso   1.00
O1361  O     0.80072   0.33011   0.13871   0.01267  Uiso   1.00
O1362  O     0.80159   0.14229   0.14054   0.01267  Uiso   1.00
O1363  O     0.97397   0.22459   0.04934   0.01267  Uiso   1.00
O1364  O     0.96100   0.21841   0.01589   0.01267  Uiso   1.00
O1365  O     0.94013   0.22621   0.19221   0.01267  Uiso   1.00
O1366  O     0.91935   0.21892   0.01576   0.01267  Uiso   1.00
O1367  O     0.92256   0.22717   0.05440   0.01267  Uiso   1.00
O1368  O     0.94811   0.24252   0.04887   0.01267  Uiso   1.00
O1369  O     0.97359   0.45009   0.04532   0.01267  Uiso   1.00
O1370  O     0.96144   0.44091   0.01136   0.01267  Uiso   1.00
O1371  O     0.93846   0.43394   0.19315   0.01267  Uiso   1.00
O1372  O     0.91704   0.45039   0.01474   0.01267  Uiso   1.00
O1373  O     0.92247   0.44599   0.05302   0.01267  Uiso   1.00
O1374  O     0.94767   0.43158   0.04433   0.01267  Uiso   1.00
O1375  O     0.96385   0.33442   0.03412   0.01267  Uiso   1.00
O1376  O     0.91702   0.33506   0.03340   0.01267  Uiso   1.00
O1377  O     0.98481   0.15787   0.07889   0.01267  Uiso   1.00
O1378  O     0.98252   0.28864   0.08144   0.01267  Uiso   1.00
O1379  O     0.97949   0.41968   0.08260   0.01267  Uiso   1.00
O1380  O     0.93886   0.15540   0.07517   0.01267  Uiso   1.00
O1381  O     0.93683   0.28555   0.08179   0.01267  Uiso   1.00
O1382  O     0.93944   0.41786   0.08163   0.01267  Uiso   1.00
O1383  O     0.89902   0.24052   0.03968   0.01267  Uiso   1.00
O1384  O     0.89827   0.42423   0.04071   0.01267  Uiso   1.00
O1385  O     0.92502   0.72359   0.14934   0.01267  Uiso   1.00
O1386  O     0.93663   0.71987   0.11497   0.01267  Uiso   1.00
O1387  O     0.95978   0.72517   0.09735   0.01267  Uiso   1.00
O1388  O     0.98380   0.72323   0.11220   0.01267  Uiso   1.00
O1389  O     0.97680   0.72140   0.15008   0.01267  Uiso   1.00
O1390  O     0.95099   0.73498   0.14709   0.01267  Uiso   1.00
O1391  O     0.92551   0.94999   0.14416   0.01267  Uiso   1.00
O1392  O     0.93766   0.93537   0.11022   0.01267  Uiso   1.00
O1393  O     0.96150   0.93559   0.09460   0.01267  Uiso   1.00
O1394  O     0.98421   0.94762   0.11316   0.01267  Uiso   1.00
O1395  O     0.97691   0.94675   0.15094   0.01267  Uiso   1.00
O1396  O     0.95159   0.93487   0.14291   0.01267  Uiso   1.00
O1397  O     0.93574   0.83363   0.13513   0.01267  Uiso   1.00
O1398  O     0.98304   0.83463   0.13288   0.01267  Uiso   1.00
O1399  O     0.91433   0.65600   0.17878   0.01267  Uiso   1.00
O1400  O     0.91637   0.78737   0.18167   0.01267  Uiso   1.00
O1401  O     0.92092   0.91748   0.18172   0.01267  Uiso   1.00
O1402  O     0.96173   0.65241   0.17315   0.01267  Uiso   1.00
O1403  O     0.96354   0.78351   0.17833   0.01267  Uiso   1.00
O1404  O     0.96005   0.91483   0.17956   0.01267  Uiso   1.00
O1405  O     0.80138   0.74324   0.14019   0.01267  Uiso   1.00
O1406  O     0.80158   0.92438   0.14110   0.01267  Uiso   1.00
O1407  O     0.97457   0.84670   0.04457   0.01267  Uiso   1.00
O1408  O     0.96045   0.84616   0.01239   0.01267  Uiso   1.00
O1409  O     0.94032   0.83186   0.18769   0.01267  Uiso   1.00
O1410  O     0.92170   0.85033   0.01500   0.01267  Uiso   1.00
O1411  O     0.92374   0.83465   0.05374   0.01267  Uiso   1.00
O1412  O     0.94900   0.82034   0.04663   0.01267  Uiso   1.00
O1413  O     0.97406   0.61622   0.04383   0.01267  Uiso   1.00
O1414  O     0.96059   0.62156   0.01120   0.01267  Uiso   1.00
O1415  O     0.93875   0.63267   0.18997   0.01267  Uiso   1.00
O1416  O     0.91943   0.61365   0.01549   0.01267  Uiso   1.00
O1417  O     0.92328   0.63111   0.05378   0.01267  Uiso   1.00
O1418  O     0.94848   0.64207   0.04507   0.01267  Uiso   1.00
O1419  O     0.96507   0.73232   0.03113   0.01267  Uiso   1.00
O1420  O     0.91686   0.73334   0.03064   0.01267  Uiso   1.00
O1421  O     0.98393   0.91087   0.07559   0.01267  Uiso   1.00
O1422  O     0.97925   0.78135   0.07774   0.01267  Uiso   1.00
O1423  O     0.97822   0.64987   0.08123   0.01267  Uiso   1.00
O1424  O     0.94070   0.91203   0.07203   0.01267  Uiso   1.00
O1425  O     0.93910   0.78430   0.08128   0.01267  Uiso   1.00
O1426  O     0.94037   0.65177   0.08244   0.01267  Uiso   1.00
O1427  O     0.90054   0.83442   0.03818   0.01267  Uiso   1.00
O1428  O     0.89951   0.63868   0.03983   0.01267  Uiso   1.00
O1429  O     0.87376   0.23337   0.04700   0.01267  Uiso   1.00
O1430  O     0.86080   0.21641   0.08015   0.01267  Uiso   1.00
O1431  O     0.84049   0.22745   0.10473   0.01267  Uiso   1.00
O1432  O     0.82045   0.21506   0.07961   0.01267  Uiso   1.00
O1433  O     0.82267   0.23339   0.04098   0.01267  Uiso   1.00
O1434  O     0.84792   0.24988   0.04759   0.01267  Uiso   1.00
O1435  O     0.87360   0.44695   0.04951   0.01267  Uiso   1.00
O1436  O     0.86043   0.45456   0.08244   0.01267  Uiso   1.00
O1437  O     0.83824   0.43554   0.10246   0.01267  Uiso   1.00
O1438  O     0.81766   0.45520   0.07919   0.01267  Uiso   1.00
O1439  O     0.82228   0.43391   0.04107   0.01267  Uiso   1.00
O1440  O     0.84758   0.42840   0.04920   0.01267  Uiso   1.00
O1441  O     0.86321   0.33781   0.06505   0.01267  Uiso   1.00
O1442  O     0.81595   0.33371   0.06482   0.01267  Uiso   1.00
O1443  O     0.88434   0.15683   0.01931   0.01267  Uiso   1.00
O1444  O     0.88236   0.28576   0.01299   0.01267  Uiso   1.00
O1445  O     0.87996   0.41708   0.01246   0.01267  Uiso   1.00
O1446  O     0.83963   0.15614   0.02266   0.01267  Uiso   1.00
O1447  O     0.83772   0.28201   0.01263   0.01267  Uiso   1.00
O1448  O     0.83938   0.41390   0.01219   0.01267  Uiso   1.00
O1449  O     0.99939   0.23485   0.05660   0.01267  Uiso   1.00
O1450  O     0.99816   0.42453   0.05491   0.01267  Uiso   1.00
O1451  O     0.82617   0.34559   0.14509   0.01267  Uiso   1.00
O1452  O     0.83875   0.34782   0.17900   0.01267  Uiso   1.00
O1453  O     0.85987   0.33971   0.00217   0.01267  Uiso   1.00
O1454  O     0.88092   0.35101   0.17927   0.01267  Uiso   1.00
O1455  O     0.87750   0.34243   0.14069   0.01267  Uiso   1.00
O1456  O     0.85199   0.32609   0.14634   0.01267  Uiso   1.00
O1457  O     0.82616   0.11649   0.15024   0.01267  Uiso   1.00
O1458  O     0.83828   0.13126   0.18410   0.01267  Uiso   1.00
O1459  O     0.86137   0.13647   0.00178   0.01267  Uiso   1.00
O1460  O     0.88329   0.12100   0.18152   0.01267  Uiso   1.00
O1461  O     0.87729   0.12219   0.14317   0.01267  Uiso   1.00
O1462  O     0.85208   0.13608   0.15095   0.01267  Uiso   1.00
O1463  O     0.83569   0.23376   0.15968   0.01267  Uiso   1.00
O1464  O     0.88322   0.23424   0.16163   0.01267  Uiso   1.00
O1465  O     0.81439   0.41036   0.11590   0.01267  Uiso   1.00
O1466  O     0.81754   0.28017   0.11320   0.01267  Uiso   1.00
O1467  O     0.82031   0.14893   0.11301   0.01267  Uiso   1.00
O1468  O     0.86113   0.41167   0.11950   0.01267  Uiso   1.00
O1469  O     0.86335   0.28126   0.11366   0.01267  Uiso   1.00
O1470  O     0.86068   0.14952   0.11386   0.01267  Uiso   1.00
O1471  O     0.90106   0.32947   0.15516   0.01267  Uiso   1.00
O1472  O     0.90166   0.14318   0.15489   0.01267  Uiso   1.00
O1473  O     0.88671   0.53297   0.02673   0.01267  Uiso   1.00
O1474  O     0.83802   0.53056   0.02803   0.01267  Uiso   1.00
O1475  O     0.85457   0.53483   0.11211   0.01267  Uiso   1.00
O1476  O     0.82141   0.53464   0.10960   0.01267  Uiso   1.00
O1477  O     0.81327   0.03307   0.12711   0.01267  Uiso   1.00
O1478  O     0.86031   0.03147   0.13052   0.01267  Uiso   1.00
O1479  O     0.84491   0.03735   0.01008   0.01267  Uiso   1.00
O1480  O     0.87765   0.03542   0.00994   0.01267  Uiso   1.00
O1481  O     0.91330   0.03329   0.16819   0.01267  Uiso   1.00
O1482  O     0.96012   0.03549   0.16473   0.01267  Uiso   1.00
O1483  O     0.94459   0.03235   0.08530   0.01267  Uiso   1.00
O1484  O     0.97807   0.03363   0.08531   0.01267  Uiso   1.00
O1485  O     0.98653   0.53477   0.06797   0.01267  Uiso   1.00
O1486  O     0.93963   0.53603   0.06527   0.01267  Uiso   1.00
O1487  O     0.95523   0.53143   0.18424   0.01267  Uiso   1.00
O1488  O     0.92171   0.53284   0.18512   0.01267  Uiso   1.00
H1489  H     0.87836   0.61034   0.09640   0.01267  Uiso   1.00
H1490  H     0.91803   0.56025   0.08748   0.01267  Uiso   1.00
H1491  H     0.89611   0.60087   0.07473   0.01267  Uiso   1.00
H1492  H     0.87928   0.58796   0.13030   0.01267  Uiso   1.00
H1493  H     0.90054   0.54786   0.14554   0.01267  Uiso   1.00
H1494  H     0.92017   0.53368   0.12346   0.01267  Uiso   1.00
C1495  C     0.91084   0.55093   0.11750   0.01267  Uiso   1.00
C1496  C     0.90975   0.56565   0.09745   0.01267  Uiso   1.00
C1497  C     0.89783   0.58779   0.09009   0.01267  Uiso   1.00
C1498  C     0.88823   0.58054   0.12178   0.01267  Uiso   1.00
C1499  C     0.89996   0.55859   0.12983   0.01267  Uiso   1.00
N1500  N     0.88749   0.59435   0.10234   0.01267  Uiso   1.00
Si1501 Si    0.08561   0.84225   0.23009   0.01267  Uiso   1.00
Si1502 Si    0.06278   0.81360   0.26027   0.01267  Uiso   1.00
Si1503 Si    0.05583   0.84479   0.30339   0.01267  Uiso   1.00
Si1504 Si    0.02475   0.84618   0.30399   0.01267  Uiso   1.00
Si1505 Si    0.01407   0.81247   0.26182   0.01267  Uiso   1.00
Si1506 Si    0.03775   0.85034   0.23538   0.01267  Uiso   1.00
Si1507 Si    0.05332   0.61381   0.30670   0.01267  Uiso   1.00
Si1508 Si    0.02279   0.61254   0.30363   0.01267  Uiso   1.00
Si1509 Si    0.01342   0.65538   0.26086   0.01267  Uiso   1.00
Si1510 Si    0.03728   0.60581   0.23693   0.01267  Uiso   1.00
Si1511 Si    0.01616   0.72596   0.33282   0.01267  Uiso   1.00
Si1512 Si    0.03725   0.75636   0.36392   0.01267  Uiso   1.00
Si1513 Si    0.04379   0.72491   0.20809   0.01267  Uiso   1.00
Si1514 Si    0.07525   0.72020   0.20453   0.01267  Uiso   1.00
Si1515 Si    0.08454   0.75344   0.36158   0.01267  Uiso   1.00
Si1516 Si    0.06086   0.72720   0.33492   0.01267  Uiso   1.00
Si1517 Si    0.01539   0.95611   0.33338   0.01267  Uiso   1.00
Si1518 Si    0.03782   0.91458   0.36251   0.01267  Uiso   1.00
Si1519 Si    0.04574   0.95877   0.20524   0.01267  Uiso   1.00
Si1520 Si    0.07637   0.95824   0.20332   0.01267  Uiso   1.00
Si1521 Si    0.08589   0.91164   0.36112   0.01267  Uiso   1.00
Si1522 Si    0.06224   0.95289   0.33494   0.01267  Uiso   1.00
Si1523 Si    0.11519   0.33982   0.36571   0.01267  Uiso   1.00
Si1524 Si    0.13830   0.31154   0.33588   0.01267  Uiso   1.00
Si1525 Si    0.14378   0.34875   0.29231   0.01267  Uiso   1.00
Si1526 Si    0.17535   0.34962   0.29268   0.01267  Uiso   1.00
Si1527 Si    0.18542   0.31200   0.33485   0.01267  Uiso   1.00
Si1528 Si    0.16293   0.33679   0.36427   0.01267  Uiso   1.00
Si1529 Si    0.11525   0.11132   0.36325   0.01267  Uiso   1.00
Si1530 Si    0.13833   0.15455   0.33438   0.01267  Uiso   1.00
Si1531 Si    0.14591   0.10962   0.29171   0.01267  Uiso   1.00
Si1532 Si    0.17663   0.10913   0.29336   0.01267  Uiso   1.00
Si1533 Si    0.18622   0.15438   0.33533   0.01267  Uiso   1.00
Si1534 Si    0.16257   0.11429   0.36166   0.01267  Uiso   1.00
Si1535 Si    0.18502   0.22684   0.26654   0.01267  Uiso   1.00
Si1536 Si    0.16174   0.25522   0.23712   0.01267  Uiso   1.00
Si1537 Si    0.15600   0.21915   0.39322   0.01267  Uiso   1.00
Si1538 Si    0.12432   0.21829   0.39315   0.01267  Uiso   1.00
Si1539 Si    0.11441   0.25572   0.23571   0.01267  Uiso   1.00
Si1540 Si    0.13677   0.22759   0.26509   0.01267  Uiso   1.00
Si1541 Si    0.18450   0.45707   0.26266   0.01267  Uiso   1.00
Si1542 Si    0.16165   0.41398   0.23388   0.01267  Uiso   1.00
Si1543 Si    0.15388   0.45421   0.39068   0.01267  Uiso   1.00
Si1544 Si    0.12311   0.45652   0.39276   0.01267  Uiso   1.00
Si1545 Si    0.11366   0.41346   0.23542   0.01267  Uiso   1.00
Si1546 Si    0.13740   0.45749   0.26093   0.01267  Uiso   1.00
Si1547 Si    0.11403   0.72581   0.36664   0.01267  Uiso   1.00
Si1548 Si    0.13718   0.75373   0.33673   0.01267  Uiso   1.00
Si1549 Si    0.14407   0.72051   0.29376   0.01267  Uiso   1.00
Si1550 Si    0.17531   0.72011   0.29205   0.01267  Uiso   1.00
Si1551 Si    0.18627   0.75573   0.33380   0.01267  Uiso   1.00
Si1552 Si    0.16312   0.72372   0.36221   0.01267  Uiso   1.00
Si1553 Si    0.11522   0.95587   0.36240   0.01267  Uiso   1.00
Si1554 Si    0.13766   0.91329   0.33321   0.01267  Uiso   1.00
Si1555 Si    0.14614   0.95420   0.29068   0.01267  Uiso   1.00
Si1556 Si    0.17689   0.95655   0.29215   0.01267  Uiso   1.00
Si1557 Si    0.18641   0.91313   0.33451   0.01267  Uiso   1.00
Si1558 Si    0.16218   0.95772   0.35950   0.01267  Uiso   1.00
Si1559 Si    0.18425   0.84128   0.26354   0.01267  Uiso   1.00
Si1560 Si    0.16226   0.81123   0.23372   0.01267  Uiso   1.00
Si1561 Si    0.15608   0.84424   0.38947   0.01267  Uiso   1.00
Si1562 Si    0.12487   0.84689   0.39162   0.01267  Uiso   1.00
Si1563 Si    0.13824   0.83795   0.26343   0.01267  Uiso   1.00
Si1564 Si    0.18433   0.61201   0.26209   0.01267  Uiso   1.00
Si1565 Si    0.16208   0.65359   0.23289   0.01267  Uiso   1.00
Si1566 Si    0.15410   0.60952   0.38974   0.01267  Uiso   1.00
Si1567 Si    0.12355   0.60919   0.39246   0.01267  Uiso   1.00
Si1568 Si    0.13812   0.61528   0.26135   0.01267  Uiso   1.00
Si1569 Si    0.08470   0.22929   0.22975   0.01267  Uiso   1.00
Si1570 Si    0.06142   0.25959   0.25988   0.01267  Uiso   1.00
Si1571 Si    0.05630   0.21824   0.30313   0.01267  Uiso   1.00
Si1572 Si    0.02475   0.21795   0.30261   0.01267  Uiso   1.00
Si1573 Si    0.01461   0.25459   0.26060   0.01267  Uiso   1.00
Si1574 Si    0.03712   0.23048   0.23100   0.01267  Uiso   1.00
Si1575 Si    0.08454   0.45578   0.23236   0.01267  Uiso   1.00
Si1576 Si    0.05350   0.45921   0.30399   0.01267  Uiso   1.00
Si1577 Si    0.02292   0.45901   0.30175   0.01267  Uiso   1.00
Si1578 Si    0.01358   0.41176   0.25996   0.01267  Uiso   1.00
Si1579 Si    0.03687   0.45258   0.23284   0.01267  Uiso   1.00
Si1580 Si    0.01489   0.34132   0.32827   0.01267  Uiso   1.00
Si1581 Si    0.03816   0.31292   0.35752   0.01267  Uiso   1.00
Si1582 Si    0.04397   0.34608   0.20155   0.01267  Uiso   1.00
Si1583 Si    0.07565   0.34841   0.20181   0.01267  Uiso   1.00
Si1584 Si    0.08566   0.31349   0.35932   0.01267  Uiso   1.00
Si1585 Si    0.06326   0.34015   0.32998   0.01267  Uiso   1.00
Si1586 Si    0.01536   0.11047   0.33276   0.01267  Uiso   1.00
Si1587 Si    0.03812   0.15440   0.36122   0.01267  Uiso   1.00
Si1588 Si    0.04602   0.11509   0.20448   0.01267  Uiso   1.00
Si1589 Si    0.07662   0.11234   0.20309   0.01267  Uiso   1.00
Si1590 Si    0.08628   0.15524   0.36035   0.01267  Uiso   1.00
Si1591 Si    0.06256   0.10986   0.33460   0.01267  Uiso   1.00
Si1592 Si    0.11557   0.81298   0.23426   0.01267  Uiso   1.00
Si1593 Si    0.11464   0.65490   0.23477   0.01267  Uiso   1.00
Si1594 Si    0.08492   0.60995   0.23394   0.01267  Uiso   1.00
Si1595 Si    0.06110   0.41691   0.26129   0.01267  Uiso   1.00
Al1596 Al    0.06188   0.65046   0.26330   0.01267  Uiso   1.00
O1597  O     0.07568   0.84207   0.24861   0.01267  Uiso   1.00
O1598  O     0.06408   0.83937   0.28312   0.01267  Uiso   1.00
O1599  O     0.04020   0.84616   0.29845   0.01267  Uiso   1.00
O1600  O     0.01593   0.83841   0.28432   0.01267  Uiso   1.00
O1601  O     0.02378   0.85166   0.24697   0.01267  Uiso   1.00
O1602  O     0.04980   0.84927   0.25087   0.01267  Uiso   1.00
O1603  O     0.07596   0.61481   0.25315   0.01267  Uiso   1.00
O1604  O     0.06328   0.63255   0.28899   0.01267  Uiso   1.00
O1605  O     0.03821   0.63325   0.30155   0.01267  Uiso   1.00
O1606  O     0.01542   0.62562   0.28292   0.01267  Uiso   1.00
O1607  O     0.02216   0.61659   0.24471   0.01267  Uiso   1.00
O1608  O     0.04751   0.61507   0.25451   0.01267  Uiso   1.00
O1609  O     0.06188   0.73502   0.25882   0.01267  Uiso   1.00
O1610  O     0.01719   0.73364   0.26075   0.01267  Uiso   1.00
O1611  O     0.08473   0.91280   0.21843   0.01267  Uiso   1.00
O1612  O     0.08288   0.78221   0.21461   0.01267  Uiso   1.00
O1613  O     0.07939   0.65082   0.21488   0.01267  Uiso   1.00
O1614  O     0.03838   0.91857   0.22261   0.01267  Uiso   1.00
O1615  O     0.03810   0.78664   0.22078   0.01267  Uiso   1.00
O1616  O     0.03987   0.65518   0.21820   0.01267  Uiso   1.00
O1617  O     0.19895   0.82722   0.25552   0.01267  Uiso   1.00
O1618  O     0.19797   0.64633   0.25521   0.01267  Uiso   1.00
O1619  O     0.02556   0.71887   0.35202   0.01267  Uiso   1.00
O1620  O     0.03734   0.72780   0.38616   0.01267  Uiso   1.00
O1621  O     0.05961   0.73234   0.20610   0.01267  Uiso   1.00
O1622  O     0.07963   0.71593   0.38143   0.01267  Uiso   1.00
O1623  O     0.07601   0.72869   0.34268   0.01267  Uiso   1.00
O1624  O     0.05139   0.74236   0.35356   0.01267  Uiso   1.00
O1625  O     0.02602   0.95211   0.35107   0.01267  Uiso   1.00
O1626  O     0.03842   0.94513   0.38447   0.01267  Uiso   1.00
O1627  O     0.06103   0.93507   0.20364   0.01267  Uiso   1.00
O1628  O     0.08220   0.95145   0.38112   0.01267  Uiso   1.00
O1629  O     0.07706   0.93936   0.34299   0.01267  Uiso   1.00
O1630  O     0.05179   0.92743   0.35147   0.01267  Uiso   1.00
O1631  O     0.03463   0.83589   0.36351   0.01267  Uiso   1.00
O1632  O     0.08314   0.83306   0.36445   0.01267  Uiso   1.00
O1633  O     0.01592   0.65609   0.32092   0.01267  Uiso   1.00
O1634  O     0.02177   0.78484   0.31883   0.01267  Uiso   1.00
O1635  O     0.02075   0.91604   0.31426   0.01267  Uiso   1.00
O1636  O     0.05801   0.65269   0.32668   0.01267  Uiso   1.00
O1637  O     0.05889   0.78135   0.31755   0.01267  Uiso   1.00
O1638  O     0.06003   0.91306   0.31450   0.01267  Uiso   1.00
O1639  O     0.09966   0.73304   0.35658   0.01267  Uiso   1.00
O1640  O     0.10128   0.92362   0.35570   0.01267  Uiso   1.00
O1641  O     0.12644   0.34312   0.34879   0.01267  Uiso   1.00
O1642  O     0.13903   0.35220   0.31517   0.01267  Uiso   1.00
O1643  O     0.15958   0.33962   0.29095   0.01267  Uiso   1.00
O1644  O     0.17982   0.35087   0.31557   0.01267  Uiso   1.00
O1645  O     0.17737   0.33585   0.35425   0.01267  Uiso   1.00
O1646  O     0.15209   0.31933   0.34752   0.01267  Uiso   1.00
O1647  O     0.12649   0.12021   0.34655   0.01267  Uiso   1.00
O1648  O     0.13883   0.11954   0.31294   0.01267  Uiso   1.00
O1649  O     0.16126   0.13171   0.29339   0.01267  Uiso   1.00
O1650  O     0.18232   0.11284   0.31566   0.01267  Uiso   1.00
O1651  O     0.17740   0.12841   0.35378   0.01267  Uiso   1.00
O1652  O     0.15225   0.14438   0.34566   0.01267  Uiso   1.00
O1653  O     0.13551   0.23348   0.33177   0.01267  Uiso   1.00
O1654  O     0.18352   0.23273   0.33135   0.01267  Uiso   1.00
O1655  O     0.11502   0.41015   0.37746   0.01267  Uiso   1.00
O1656  O     0.11776   0.27968   0.38114   0.01267  Uiso   1.00
O1657  O     0.11978   0.14838   0.38345   0.01267  Uiso   1.00
O1658  O     0.16032   0.41021   0.37321   0.01267  Uiso   1.00
O1659  O     0.16246   0.28235   0.38192   0.01267  Uiso   1.00
O1660  O     0.16050   0.15012   0.38290   0.01267  Uiso   1.00
O1661  O     0.00072   0.33011   0.33871   0.01267  Uiso   1.00
O1662  O     0.00159   0.14229   0.34054   0.01267  Uiso   1.00
O1663  O     0.17397   0.22459   0.24934   0.01267  Uiso   1.00
O1664  O     0.16100   0.21841   0.21589   0.01267  Uiso   1.00
O1665  O     0.14013   0.22621   0.39221   0.01267  Uiso   1.00
O1666  O     0.11935   0.21892   0.21576   0.01267  Uiso   1.00
O1667  O     0.12256   0.22717   0.25440   0.01267  Uiso   1.00
O1668  O     0.14811   0.24252   0.24887   0.01267  Uiso   1.00
O1669  O     0.17359   0.45009   0.24532   0.01267  Uiso   1.00
O1670  O     0.16144   0.44091   0.21136   0.01267  Uiso   1.00
O1671  O     0.13846   0.43394   0.39315   0.01267  Uiso   1.00
O1672  O     0.11704   0.45039   0.21474   0.01267  Uiso   1.00
O1673  O     0.12247   0.44599   0.25302   0.01267  Uiso   1.00
O1674  O     0.14767   0.43158   0.24433   0.01267  Uiso   1.00
O1675  O     0.16385   0.33442   0.23412   0.01267  Uiso   1.00
O1676  O     0.11702   0.33506   0.23340   0.01267  Uiso   1.00
O1677  O     0.18481   0.15787   0.27889   0.01267  Uiso   1.00
O1678  O     0.18252   0.28864   0.28144   0.01267  Uiso   1.00
O1679  O     0.17949   0.41968   0.28260   0.01267  Uiso   1.00
O1680  O     0.13886   0.15540   0.27517   0.01267  Uiso   1.00
O1681  O     0.13683   0.28555   0.28179   0.01267  Uiso   1.00
O1682  O     0.13944   0.41786   0.28163   0.01267  Uiso   1.00
O1683  O     0.09902   0.24052   0.23968   0.01267  Uiso   1.00
O1684  O     0.09827   0.42423   0.24071   0.01267  Uiso   1.00
O1685  O     0.12502   0.72359   0.34934   0.01267  Uiso   1.00
O1686  O     0.13663   0.71987   0.31497   0.01267  Uiso   1.00
O1687  O     0.15978   0.72517   0.29735   0.01267  Uiso   1.00
O1688  O     0.18380   0.72323   0.31220   0.01267  Uiso   1.00
O1689  O     0.17680   0.72140   0.35008   0.01267  Uiso   1.00
O1690  O     0.15099   0.73498   0.34709   0.01267  Uiso   1.00
O1691  O     0.12551   0.94999   0.34416   0.01267  Uiso   1.00
O1692  O     0.13766   0.93537   0.31022   0.01267  Uiso   1.00
O1693  O     0.16150   0.93559   0.29460   0.01267  Uiso   1.00
O1694  O     0.18421   0.94762   0.31316   0.01267  Uiso   1.00
O1695  O     0.17691   0.94675   0.35094   0.01267  Uiso   1.00
O1696  O     0.15159   0.93487   0.34291   0.01267  Uiso   1.00
O1697  O     0.13574   0.83363   0.33513   0.01267  Uiso   1.00
O1698  O     0.18304   0.83463   0.33288   0.01267  Uiso   1.00
O1699  O     0.11433   0.65600   0.37878   0.01267  Uiso   1.00
O1700  O     0.11637   0.78737   0.38167   0.01267  Uiso   1.00
O1701  O     0.12092   0.91748   0.38172   0.01267  Uiso   1.00
O1702  O     0.16173   0.65241   0.37315   0.01267  Uiso   1.00
O1703  O     0.16354   0.78351   0.37833   0.01267  Uiso   1.00
O1704  O     0.16005   0.91483   0.37956   0.01267  Uiso   1.00
O1705  O     0.00138   0.74324   0.34019   0.01267  Uiso   1.00
O1706  O     0.00158   0.92438   0.34110   0.01267  Uiso   1.00
O1707  O     0.17457   0.84670   0.24457   0.01267  Uiso   1.00
O1708  O     0.16045   0.84616   0.21239   0.01267  Uiso   1.00
O1709  O     0.14032   0.83186   0.38769   0.01267  Uiso   1.00
O1710  O     0.12170   0.85033   0.21500   0.01267  Uiso   1.00
O1711  O     0.12374   0.83465   0.25374   0.01267  Uiso   1.00
O1712  O     0.14900   0.82034   0.24663   0.01267  Uiso   1.00
O1713  O     0.17406   0.61622   0.24383   0.01267  Uiso   1.00
O1714  O     0.16059   0.62156   0.21120   0.01267  Uiso   1.00
O1715  O     0.13875   0.63267   0.38997   0.01267  Uiso   1.00
O1716  O     0.11943   0.61365   0.21549   0.01267  Uiso   1.00
O1717  O     0.12328   0.63111   0.25378   0.01267  Uiso   1.00
O1718  O     0.14848   0.64207   0.24507   0.01267  Uiso   1.00
O1719  O     0.16507   0.73232   0.23113   0.01267  Uiso   1.00
O1720  O     0.11686   0.73334   0.23064   0.01267  Uiso   1.00
O1721  O     0.18393   0.91087   0.27559   0.01267  Uiso   1.00
O1722  O     0.17925   0.78135   0.27774   0.01267  Uiso   1.00
O1723  O     0.17822   0.64987   0.28123   0.01267  Uiso   1.00
O1724  O     0.14070   0.91203   0.27203   0.01267  Uiso   1.00
O1725  O     0.13910   0.78430   0.28128   0.01267  Uiso   1.00
O1726  O     0.14037   0.65177   0.28244   0.01267  Uiso   1.00
O1727  O     0.10054   0.83442   0.23818   0.01267  Uiso   1.00
O1728  O     0.09951   0.63868   0.23983   0.01267  Uiso   1.00
O1729  O     0.07376   0.23337   0.24700   0.01267  Uiso   1.00
O1730  O     0.06080   0.21641   0.28015   0.01267  Uiso   1.00
O1731  O     0.04049   0.22745   0.30473   0.01267  Uiso   1.00
O1732  O     0.02045   0.21506   0.27961   0.01267  Uiso   1.00
O1733  O     0.02267   0.23339   0.24098   0.01267  Uiso   1.00
O1734  O     0.04792   0.24988   0.24759   0.01267  Uiso   1.00
O1735  O     0.07360   0.44695   0.24951   0.01267  Uiso   1.00
O1736  O     0.06043   0.45456   0.28244   0.01267  Uiso   1.00
O1737  O     0.03824   0.43554   0.30246   0.01267  Uiso   1.00
O1738  O     0.01766   0.45520   0.27919   0.01267  Uiso   1.00
O1739  O     0.02228   0.43391   0.24107   0.01267  Uiso   1.00
O1740  O     0.04758   0.42840   0.24920   0.01267  Uiso   1.00
O1741  O     0.06321   0.33781   0.26505   0.01267  Uiso   1.00
O1742  O     0.01595   0.33371   0.26482   0.01267  Uiso   1.00
O1743  O     0.08434   0.15683   0.21931   0.01267  Uiso   1.00
O1744  O     0.08236   0.28576   0.21299   0.01267  Uiso   1.00
O1745  O     0.07996   0.41708   0.21246   0.01267  Uiso   1.00
O1746  O     0.03963   0.15614   0.22266   0.01267  Uiso   1.00
O1747  O     0.03772   0.28201   0.21263   0.01267  Uiso   1.00
O1748  O     0.03938   0.41390   0.21219   0.01267  Uiso   1.00
O1749  O     0.19939   0.23485   0.25660   0.01267  Uiso   1.00
O1750  O     0.19816   0.42453   0.25491   0.01267  Uiso   1.00
O1751  O     0.02617   0.34559   0.34509   0.01267  Uiso   1.00
O1752  O     0.03875   0.34782   0.37900   0.01267  Uiso   1.00
O1753  O     0.05987   0.33971   0.20217   0.01267  Uiso   1.00
O1754  O     0.08092   0.35101   0.37927   0.01267  Uiso   1.00
O1755  O     0.07750   0.34243   0.34069   0.01267  Uiso   1.00
O1756  O     0.05199   0.32609   0.34634   0.01267  Uiso   1.00
O1757  O     0.02616   0.11649   0.35024   0.01267  Uiso   1.00
O1758  O     0.03828   0.13126   0.38410   0.01267  Uiso   1.00
O1759  O     0.06137   0.13647   0.20178   0.01267  Uiso   1.00
O1760  O     0.08329   0.12100   0.38152   0.01267  Uiso   1.00
O1761  O     0.07729   0.12219   0.34317   0.01267  Uiso   1.00
O1762  O     0.05208   0.13608   0.35095   0.01267  Uiso   1.00
O1763  O     0.03569   0.23376   0.35968   0.01267  Uiso   1.00
O1764  O     0.08322   0.23424   0.36163   0.01267  Uiso   1.00
O1765  O     0.01439   0.41036   0.31590   0.01267  Uiso   1.00
O1766  O     0.01754   0.28017   0.31320   0.01267  Uiso   1.00
O1767  O     0.02031   0.14893   0.31301   0.01267  Uiso   1.00
O1768  O     0.06113   0.41167   0.31950   0.01267  Uiso   1.00
O1769  O     0.06335   0.28126   0.31366   0.01267  Uiso   1.00
O1770  O     0.06068   0.14952   0.31386   0.01267  Uiso   1.00
O1771  O     0.10106   0.32947   0.35516   0.01267  Uiso   1.00
O1772  O     0.10166   0.14318   0.35489   0.01267  Uiso   1.00
O1773  O     0.08671   0.53297   0.22673   0.01267  Uiso   1.00
O1774  O     0.03802   0.53056   0.22803   0.01267  Uiso   1.00
O1775  O     0.05457   0.53483   0.31211   0.01267  Uiso   1.00
O1776  O     0.02141   0.53464   0.30960   0.01267  Uiso   1.00
O1777  O     0.01327   0.03307   0.32711   0.01267  Uiso   1.00
O1778  O     0.06031   0.03147   0.33052   0.01267  Uiso   1.00
O1779  O     0.04491   0.03735   0.21008   0.01267  Uiso   1.00
O1780  O     0.07765   0.03542   0.20994   0.01267  Uiso   1.00
O1781  O     0.11330   0.03329   0.36819   0.01267  Uiso   1.00
O1782  O     0.16012   0.03549   0.36473   0.01267  Uiso   1.00
O1783  O     0.14459   0.03235   0.28530   0.01267  Uiso   1.00
O1784  O     0.17807   0.03363   0.28531   0.01267  Uiso   1.00
O1785  O     0.18653   0.53477   0.26797   0.01267  Uiso   1.00
O1786  O     0.13963   0.53603   0.26527   0.01267  Uiso   1.00
O1787  O     0.15523   0.53143   0.38424   0.01267  Uiso   1.00
O1788  O     0.12171   0.53284   0.38512   0.01267  Uiso   1.00
H1789  H     0.07836   0.61034   0.29640   0.01267  Uiso   1.00
H1790  H     0.11803   0.56025   0.28748   0.01267  Uiso   1.00
H1791  H     0.09611   0.60087   0.27473   0.01267  Uiso   1.00
H1792  H     0.07928   0.58796   0.33030   0.01267  Uiso   1.00
H1793  H     0.10054   0.54786   0.34554   0.01267  Uiso   1.00
H1794  H     0.12017   0.53368   0.32346   0.01267  Uiso   1.00
C1795  C     0.11084   0.55093   0.31750   0.01267  Uiso   1.00
C1796  C     0.10975   0.56565   0.29745   0.01267  Uiso   1.00
C1797  C     0.09783   0.58779   0.29009   0.01267  Uiso   1.00
C1798  C     0.08823   0.58054   0.32178   0.01267  Uiso   1.00
C1799  C     0.09996   0.55859   0.32983   0.01267  Uiso   1.00
N1800  N     0.08749   0.59435   0.30234   0.01267  Uiso   1.00
Si1801 Si    0.28561   0.84225   0.23009   0.01267  Uiso   1.00
Si1802 Si    0.26278   0.81360   0.26027   0.01267  Uiso   1.00
Si1803 Si    0.25583   0.84479   0.30339   0.01267  Uiso   1.00
Si1804 Si    0.22475   0.84618   0.30399   0.01267  Uiso   1.00
Si1805 Si    0.21407   0.81247   0.26182   0.01267  Uiso   1.00
Si1806 Si    0.23775   0.85034   0.23538   0.01267  Uiso   1.00
Si1807 Si    0.25332   0.61381   0.30670   0.01267  Uiso   1.00
Si1808 Si    0.22279   0.61254   0.30363   0.01267  Uiso   1.00
Si1809 Si    0.21342   0.65538   0.26086   0.01267  Uiso   1.00
Si1810 Si    0.23728   0.60581   0.23693   0.01267  Uiso   1.00
Si1811 Si    0.21616   0.72596   0.33282   0.01267  Uiso   1.00
Si1812 Si    0.23725   0.75636   0.36392   0.01267  Uiso   1.00
Si1813 Si    0.24379   0.72491   0.20809   0.01267  Uiso   1.00
Si1814 Si    0.27525   0.72020   0.20453   0.01267  Uiso   1.00
Si1815 Si    0.28454   0.75344   0.36158   0.01267  Uiso   1.00
Si1816 Si    0.26086   0.72720   0.33492   0.01267  Uiso   1.00
Si1817 Si    0.21539   0.95611   0.33338   0.01267  Uiso   1.00
Si1818 Si    0.23782   0.91458   0.36251   0.01267  Uiso   1.00
Si1819 Si    0.24574   0.95877   0.20524   0.01267  Uiso   1.00
Si1820 Si    0.27637   0.95824   0.20332   0.01267  Uiso   1.00
Si1821 Si    0.28589   0.91164   0.36112   0.01267  Uiso   1.00
Si1822 Si    0.26224   0.95289   0.33494   0.01267  Uiso   1.00
Si1823 Si    0.31519   0.33982   0.36571   0.01267  Uiso   1.00
Si1824 Si    0.33830   0.31154   0.33588   0.01267  Uiso   1.00
Si1825 Si    0.34378   0.34875   0.29231   0.01267  Uiso   1.00
Si1826 Si    0.37535   0.34962   0.29268   0.01267  Uiso   1.00
Si1827 Si    0.38542   0.31200   0.33485   0.01267  Uiso   1.00
Si1828 Si    0.36293   0.33679   0.36427   0.01267  Uiso   1.00
Si1829 Si    0.31525   0.11132   0.36325   0.01267  Uiso   1.00
Si1830 Si    0.33833   0.15455   0.33438   0.01267  Uiso   1.00
Si1831 Si    0.34591   0.10962   0.29171   0.01267  Uiso   1.00
Si1832 Si    0.37663   0.10913   0.29336   0.01267  Uiso   1.00
Si1833 Si    0.38622   0.15438   0.33533   0.01267  Uiso   1.00
Si1834 Si    0.36257   0.11429   0.36166   0.01267  Uiso   1.00
Si1835 Si    0.38502   0.22684   0.26654   0.01267  Uiso   1.00
Si1836 Si    0.36174   0.25522   0.23712   0.01267  Uiso   1.00
Si1837 Si    0.35600   0.21915   0.39322   0.01267  Uiso   1.00
Si1838 Si    0.32432   0.21829   0.39315   0.01267  Uiso   1.00
Si1839 Si    0.31441   0.25572   0.23571   0.01267  Uiso   1.00
Si1840 Si    0.33677   0.22759   0.26509   0.01267  Uiso   1.00
Si1841 Si    0.38450   0.45707   0.26266   0.01267  Uiso   1.00
Si1842 Si    0.36165   0.41398   0.23388   0.01267  Uiso   1.00
Si1843 Si    0.35388   0.45421   0.39068   0.01267  Uiso   1.00
Si1844 Si    0.32311   0.45652   0.39276   0.01267  Uiso   1.00
Si1845 Si    0.31366   0.41346   0.23542   0.01267  Uiso   1.00
Si1846 Si    0.33740   0.45749   0.26093   0.01267  Uiso   1.00
Si1847 Si    0.31403   0.72581   0.36664   0.01267  Uiso   1.00
Si1848 Si    0.33718   0.75373   0.33673   0.01267  Uiso   1.00
Si1849 Si    0.34407   0.72051   0.29376   0.01267  Uiso   1.00
Si1850 Si    0.37531   0.72011   0.29205   0.01267  Uiso   1.00
Si1851 Si    0.38627   0.75573   0.33380   0.01267  Uiso   1.00
Si1852 Si    0.36312   0.72372   0.36221   0.01267  Uiso   1.00
Si1853 Si    0.31522   0.95587   0.36240   0.01267  Uiso   1.00
Si1854 Si    0.33766   0.91329   0.33321   0.01267  Uiso   1.00
Si1855 Si    0.34614   0.95420   0.29068   0.01267  Uiso   1.00
Si1856 Si    0.37689   0.95655   0.29215   0.01267  Uiso   1.00
Si1857 Si    0.38641   0.91313   0.33451   0.01267  Uiso   1.00
Si1858 Si    0.36218   0.95772   0.35950   0.01267  Uiso   1.00
Si1859 Si    0.38425   0.84128   0.26354   0.01267  Uiso   1.00
Si1860 Si    0.36226   0.81123   0.23372   0.01267  Uiso   1.00
Si1861 Si    0.35608   0.84424   0.38947   0.01267  Uiso   1.00
Si1862 Si    0.32487   0.84689   0.39162   0.01267  Uiso   1.00
Si1863 Si    0.33824   0.83795   0.26343   0.01267  Uiso   1.00
Si1864 Si    0.38433   0.61201   0.26209   0.01267  Uiso   1.00
Si1865 Si    0.36208   0.65359   0.23289   0.01267  Uiso   1.00
Si1866 Si    0.35410   0.60952   0.38974   0.01267  Uiso   1.00
Si1867 Si    0.32355   0.60919   0.39246   0.01267  Uiso   1.00
Si1868 Si    0.33812   0.61528   0.26135   0.01267  Uiso   1.00
Si1869 Si    0.28470   0.22929   0.22975   0.01267  Uiso   1.00
Si1870 Si    0.26142   0.25959   0.25988   0.01267  Uiso   1.00
Si1871 Si    0.25630   0.21824   0.30313   0.01267  Uiso   1.00
Si1872 Si    0.22475   0.21795   0.30261   0.01267  Uiso   1.00
Si1873 Si    0.21461   0.25459   0.26060   0.01267  Uiso   1.00
Si1874 Si    0.23712   0.23048   0.23100   0.01267  Uiso   1.00
Si1875 Si    0.28454   0.45578   0.23236   0.01267  Uiso   1.00
Si1876 Si    0.25350   0.45921   0.30399   0.01267  Uiso   1.00
Si1877 Si    0.22292   0.45901   0.30175   0.01267  Uiso   1.00
Si1878 Si    0.21358   0.41176   0.25996   0.01267  Uiso   1.00
Si1879 Si    0.23687   0.45258   0.23284   0.01267  Uiso   1.00
Si1880 Si    0.21489   0.34132   0.32827   0.01267  Uiso   1.00
Si1881 Si    0.23816   0.31292   0.35752   0.01267  Uiso   1.00
Si1882 Si    0.24397   0.34608   0.20155   0.01267  Uiso   1.00
Si1883 Si    0.27565   0.34841   0.20181   0.01267  Uiso   1.00
Si1884 Si    0.28566   0.31349   0.35932   0.01267  Uiso   1.00
Si1885 Si    0.26326   0.34015   0.32998   0.01267  Uiso   1.00
Si1886 Si    0.21536   0.11047   0.33276   0.01267  Uiso   1.00
Si1887 Si    0.23812   0.15440   0.36122   0.01267  Uiso   1.00
Si1888 Si    0.24602   0.11509   0.20448   0.01267  Uiso   1.00
Si1889 Si    0.27662   0.11234   0.20309   0.01267  Uiso   1.00
Si1890 Si    0.28628   0.15524   0.36035   0.01267  Uiso   1.00
Si1891 Si    0.26256   0.10986   0.33460   0.01267  Uiso   1.00
Si1892 Si    0.31557   0.81298   0.23426   0.01267  Uiso   1.00
Si1893 Si    0.31464   0.65490   0.23477   0.01267  Uiso   1.00
Si1894 Si    0.28492   0.60995   0.23394   0.01267  Uiso   1.00
Si1895 Si    0.26110   0.41691   0.26129   0.01267  Uiso   1.00
Al1896 Al    0.26188   0.65046   0.26330   0.01267  Uiso   1.00
O1897  O     0.27568   0.84207   0.24861   0.01267  Uiso   1.00
O1898  O     0.26408   0.83937   0.28312   0.01267  Uiso   1.00
O1899  O     0.24020   0.84616   0.29845   0.01267  Uiso   1.00
O1900  O     0.21593   0.83841   0.28432   0.01267  Uiso   1.00
O1901  O     0.22378   0.85166   0.24697   0.01267  Uiso   1.00
O1902  O     0.24980   0.84927   0.25087   0.01267  Uiso   1.00
O1903  O     0.27596   0.61481   0.25315   0.01267  Uiso   1.00
O1904  O     0.26328   0.63255   0.28899   0.01267  Uiso   1.00
O1905  O     0.23821   0.63325   0.30155   0.01267  Uiso   1.00
O1906  O     0.21542   0.62562   0.28292   0.01267  Uiso   1.00
O1907  O     0.22216   0.61659   0.24471   0.01267  Uiso   1.00
O1908  O     0.24751   0.61507   0.25451   0.01267  Uiso   1.00
O1909  O     0.26188   0.73502   0.25882   0.01267  Uiso   1.00
O1910  O     0.21719   0.73364   0.26075   0.01267  Uiso   1.00
O1911  O     0.28473   0.91280   0.21843   0.01267  Uiso   1.00
O1912  O     0.28288   0.78221   0.21461   0.01267  Uiso   1.00
O1913  O     0.27939   0.65082   0.21488   0.01267  Uiso   1.00
O1914  O     0.23838   0.91857   0.22261   0.01267  Uiso   1.00
O1915  O     0.23810   0.78664   0.22078   0.01267  Uiso   1.00
O1916  O     0.23988   0.65518   0.21820   0.01267  Uiso   1.00
O1917  O     0.39895   0.82722   0.25552   0.01267  Uiso   1.00
O1918  O     0.39797   0.64633   0.25521   0.01267  Uiso   1.00
O1919  O     0.22556   0.71887   0.35202   0.01267  Uiso   1.00
O1920  O     0.23734   0.72780   0.38616   0.01267  Uiso   1.00
O1921  O     0.25961   0.73234   0.20610   0.01267  Uiso   1.00
O1922  O     0.27963   0.71593   0.38143   0.01267  Uiso   1.00
O1923  O     0.27601   0.72869   0.34268   0.01267  Uiso   1.00
O1924  O     0.25139   0.74236   0.35356   0.01267  Uiso   1.00
O1925  O     0.22602   0.95211   0.35107   0.01267  Uiso   1.00
O1926  O     0.23842   0.94513   0.38447   0.01267  Uiso   1.00
O1927  O     0.26103   0.93507   0.20364   0.01267  Uiso   1.00
O1928  O     0.28220   0.95145   0.38112   0.01267  Uiso   1.00
O1929  O     0.27706   0.93936   0.34299   0.01267  Uiso   1.00
O1930  O     0.25179   0.92743   0.35147   0.01267  Uiso   1.00
O1931  O     0.23463   0.83589   0.36351   0.01267  Uiso   1.00
O1932  O     0.28314   0.83306   0.36445   0.01267  Uiso   1.00
O1933  O     0.21592   0.65609   0.32092   0.01267  Uiso   1.00
O1934  O     0.22177   0.78484   0.31883   0.01267  Uiso   1.00
O1935  O     0.22075   0.91604   0.31426   0.01267  Uiso   1.00
O1936  O     0.25801   0.65269   0.32668   0.01267  Uiso   1.00
O1937  O     0.25889   0.78135   0.31755   0.01267  Uiso   1.00
O1938  O     0.26003   0.91306   0.31450   0.01267  Uiso   1.00
O1939  O     0.29966   0.73304   0.35658   0.01267  Uiso   1.00
O1940  O     0.30128   0.92362   0.35570   0.01267  Uiso   1.00
O1941  O     0.32644   0.34312   0.34879   0.01267  Uiso   1.00
O1942  O     0.33903   0.35220   0.31517   0.01267  Uiso   1.00
O1943  O     0.35958   0.33962   0.29095   0.01267  Uiso   1.00
O1944  O     0.37982   0.35087   0.31557   0.01267  Uiso   1.00
O1945  O     0.37737   0.33585   0.35425   0.01267  Uiso   1.00
O1946  O     0.35209   0.31933   0.34752   0.01267  Uiso   1.00
O1947  O     0.32649   0.12021   0.34655   0.01267  Uiso   1.00
O1948  O     0.33883   0.11954   0.31294   0.01267  Uiso   1.00
O1949  O     0.36126   0.13171   0.29339   0.01267  Uiso   1.00
O1950  O     0.38232   0.11284   0.31566   0.01267  Uiso   1.00
O1951  O     0.37740   0.12841   0.35378   0.01267  Uiso   1.00
O1952  O     0.35225   0.14438   0.34566   0.01267  Uiso   1.00
O1953  O     0.33551   0.23348   0.33177   0.01267  Uiso   1.00
O1954  O     0.38352   0.23273   0.33135   0.01267  Uiso   1.00
O1955  O     0.31502   0.41015   0.37746   0.01267  Uiso   1.00
O1956  O     0.31776   0.27968   0.38114   0.01267  Uiso   1.00
O1957  O     0.31978   0.14838   0.38345   0.01267  Uiso   1.00
O1958  O     0.36032   0.41021   0.37321   0.01267  Uiso   1.00
O1959  O     0.36246   0.28235   0.38192   0.01267  Uiso   1.00
O1960  O     0.36050   0.15012   0.38290   0.01267  Uiso   1.00
O1961  O     0.20072   0.33011   0.33871   0.01267  Uiso   1.00
O1962  O     0.20159   0.14229   0.34054   0.01267  Uiso   1.00
O1963  O     0.37397   0.22459   0.24934   0.01267  Uiso   1.00
O1964  O     0.36100   0.21841   0.21589   0.01267  Uiso   1.00
O1965  O     0.34013   0.22621   0.39221   0.01267  Uiso   1.00
O1966  O     0.31935   0.21892   0.21576   0.01267  Uiso   1.00
O1967  O     0.32256   0.22717   0.25440   0.01267  Uiso   1.00
O1968  O     0.34811   0.24252   0.24887   0.01267  Uiso   1.00
O1969  O     0.37359   0.45009   0.24532   0.01267  Uiso   1.00
O1970  O     0.36144   0.44091   0.21136   0.01267  Uiso   1.00
O1971  O     0.33846   0.43394   0.39315   0.01267  Uiso   1.00
O1972  O     0.31704   0.45039   0.21474   0.01267  Uiso   1.00
O1973  O     0.32247   0.44599   0.25302   0.01267  Uiso   1.00
O1974  O     0.34767   0.43158   0.24433   0.01267  Uiso   1.00
O1975  O     0.36385   0.33442   0.23412   0.01267  Uiso   1.00
O1976  O     0.31702   0.33506   0.23340   0.01267  Uiso   1.00
O1977  O     0.38481   0.15787   0.27889   0.01267  Uiso   1.00
O1978  O     0.38252   0.28864   0.28144   0.01267  Uiso   1.00
O1979  O     0.37949   0.41968   0.28260   0.01267  Uiso   1.00
O1980  O     0.33886   0.15540   0.27517   0.01267  Uiso   1.00
O1981  O     0.33683   0.28555   0.28179   0.01267  Uiso   1.00
O1982  O     0.33944   0.41786   0.28163   0.01267  Uiso   1.00
O1983  O     0.29902   0.24052   0.23968   0.01267  Uiso   1.00
O1984  O     0.29827   0.42423   0.24071   0.01267  Uiso   1.00
O1985  O     0.32502   0.72359   0.34934   0.01267  Uiso   1.00
O1986  O     0.33663   0.71987   0.31497   0.01267  Uiso   1.00
O1987  O     0.35978   0.72517   0.29735   0.01267  Uiso   1.00
O1988  O     0.38380   0.72323   0.31220   0.01267  Uiso   1.00
O1989  O     0.37680   0.72140   0.35008   0.01267  Uiso   1.00
O1990  O     0.35099   0.73498   0.34709   0.01267  Uiso   1.00
O1991  O     0.32551   0.94999   0.34416   0.01267  Uiso   1.00
O1992  O     0.33766   0.93537   0.31022   0.01267  Uiso   1.00
O1993  O     0.36150   0.93559   0.29460   0.01267  Uiso   1.00
O1994  O     0.38421   0.94762   0.31316   0.01267  Uiso   1.00
O1995  O     0.37691   0.94675   0.35094   0.01267  Uiso   1.00
O1996  O     0.35159   0.93487   0.34291   0.01267  Uiso   1.00
O1997  O     0.33574   0.83363   0.33513   0.01267  Uiso   1.00
O1998  O     0.38304   0.83463   0.33288   0.01267  Uiso   1.00
O1999  O     0.31433   0.65600   0.37878   0.01267  Uiso   1.00
O2000  O     0.31637   0.78737   0.38167   0.01267  Uiso   1.00
O2001  O     0.32092   0.91748   0.38172   0.01267  Uiso   1.00
O2002  O     0.36173   0.65241   0.37315   0.01267  Uiso   1.00
O2003  O     0.36354   0.78351   0.37833   0.01267  Uiso   1.00
O2004  O     0.36005   0.91483   0.37956   0.01267  Uiso   1.00
O2005  O     0.20138   0.74324   0.34019   0.01267  Uiso   1.00
O2006  O     0.20158   0.92438   0.34110   0.01267  Uiso   1.00
O2007  O     0.37457   0.84670   0.24457   0.01267  Uiso   1.00
O2008  O     0.36045   0.84616   0.21239   0.01267  Uiso   1.00
O2009  O     0.34032   0.83186   0.38769   0.01267  Uiso   1.00
O2010  O     0.32170   0.85033   0.21500   0.01267  Uiso   1.00
O2011  O     0.32374   0.83465   0.25374   0.01267  Uiso   1.00
O2012  O     0.34900   0.82034   0.24663   0.01267  Uiso   1.00
O2013  O     0.37406   0.61622   0.24383   0.01267  Uiso   1.00
O2014  O     0.36059   0.62156   0.21120   0.01267  Uiso   1.00
O2015  O     0.33875   0.63267   0.38997   0.01267  Uiso   1.00
O2016  O     0.31943   0.61365   0.21549   0.01267  Uiso   1.00
O2017  O     0.32328   0.63111   0.25378   0.01267  Uiso   1.00
O2018  O     0.34848   0.64207   0.24507   0.01267  Uiso   1.00
O2019  O     0.36507   0.73232   0.23113   0.01267  Uiso   1.00
O2020  O     0.31686   0.73334   0.23064   0.01267  Uiso   1.00
O2021  O     0.38393   0.91087   0.27559   0.01267  Uiso   1.00
O2022  O     0.37925   0.78135   0.27774   0.01267  Uiso   1.00
O2023  O     0.37822   0.64987   0.28123   0.01267  Uiso   1.00
O2024  O     0.34070   0.91203   0.27203   0.01267  Uiso   1.00
O2025  O     0.33910   0.78430   0.28128   0.01267  Uiso   1.00
O2026  O     0.34037   0.65177   0.28244   0.01267  Uiso   1.00
O2027  O     0.30054   0.83442   0.23818   0.01267  Uiso   1.00
O2028  O     0.29951   0.63868   0.23983   0.01267  Uiso   1.00
O2029  O     0.27376   0.23337   0.24700   0.01267  Uiso   1.00
O2030  O     0.26080   0.21641   0.28015   0.01267  Uiso   1.00
O2031  O     0.24049   0.22745   0.30473   0.01267  Uiso   1.00
O2032  O     0.22045   0.21506   0.27961   0.01267  Uiso   1.00
O2033  O     0.22267   0.23339   0.24098   0.01267  Uiso   1.00
O2034  O     0.24792   0.24988   0.24759   0.01267  Uiso   1.00
O2035  O     0.27360   0.44695   0.24951   0.01267  Uiso   1.00
O2036  O     0.26043   0.45456   0.28244   0.01267  Uiso   1.00
O2037  O     0.23824   0.43554   0.30246   0.01267  Uiso   1.00
O2038  O     0.21766   0.45520   0.27919   0.01267  Uiso   1.00
O2039  O     0.22228   0.43391   0.24107   0.01267  Uiso   1.00
O2040  O     0.24758   0.42840   0.24920   0.01267  Uiso   1.00
O2041  O     0.26321   0.33781   0.26505   0.01267  Uiso   1.00
O2042  O     0.21595   0.33371   0.26482   0.01267  Uiso   1.00
O2043  O     0.28434   0.15683   0.21931   0.01267  Uiso   1.00
O2044  O     0.28236   0.28576   0.21299   0.01267  Uiso   1.00
O2045  O     0.27996   0.41708   0.21246   0.01267  Uiso   1.00
O2046  O     0.23963   0.15614   0.22266   0.01267  Uiso   1.00
O2047  O     0.23772   0.28201   0.21263   0.01267  Uiso   1.00
O2048  O     0.23938   0.41390   0.21219   0.01267  Uiso   1.00
O2049  O     0.39939   0.23485   0.25660   0.01267  Uiso   1.00
O2050  O     0.39816   0.42453   0.25491   0.01267  Uiso   1.00
O2051  O     0.22617   0.34559   0.34509   0.01267  Uiso   1.00
O2052  O     0.23875   0.34782   0.37900   0.01267  Uiso   1.00
O2053  O     0.25987   0.33971   0.20217   0.01267  Uiso   1.00
O2054  O     0.28092   0.35101   0.37927   0.01267  Uiso   1.00
O2055  O     0.27750   0.34243   0.34069   0.01267  Uiso   1.00
O2056  O     0.25199   0.32609   0.34634   0.01267  Uiso   1.00
O2057  O     0.22616   0.11649   0.35024   0.01267  Uiso   1.00
O2058  O     0.23828   0.13126   0.38410   0.01267  Uiso   1.00
O2059  O     0.26137   0.13647   0.20178   0.01267  Uiso   1.00
O2060  O     0.28329   0.12100   0.38152   0.01267  Uiso   1.00
O2061  O     0.27729   0.12219   0.34317   0.01267  Uiso   1.00
O2062  O     0.25208   0.13608   0.35095   0.01267  Uiso   1.00
O2063  O     0.23569   0.23376   0.35968   0.01267  Uiso   1.00
O2064  O     0.28322   0.23424   0.36163   0.01267  Uiso   1.00
O2065  O     0.21439   0.41036   0.31590   0.01267  Uiso   1.00
O2066  O     0.21754   0.28017   0.31320   0.01267  Uiso   1.00
O2067  O     0.22031   0.14893   0.31301   0.01267  Uiso   1.00
O2068  O     0.26113   0.41167   0.31950   0.01267  Uiso   1.00
O2069  O     0.26335   0.28126   0.31366   0.01267  Uiso   1.00
O2070  O     0.26068   0.14952   0.31386   0.01267  Uiso   1.00
O2071  O     0.30106   0.32947   0.35516   0.01267  Uiso   1.00
O2072  O     0.30166   0.14318   0.35489   0.01267  Uiso   1.00
O2073  O     0.28671   0.53297   0.22673   0.01267  Uiso   1.00
O2074  O     0.23802   0.53056   0.22803   0.01267  Uiso   1.00
O2075  O     0.25457   0.53483   0.31211   0.01267  Uiso   1.00
O2076  O     0.22141   0.53464   0.30960   0.01267  Uiso   1.00
O2077  O     0.21327   0.03307   0.32711   0.01267  Uiso   1.00
O2078  O     0.26031   0.03147   0.33052   0.01267  Uiso   1.00
O2079  O     0.24491   0.03735   0.21008   0.01267  Uiso   1.00
O2080  O     0.27765   0.03542   0.20994   0.01267  Uiso   1.00
O2081  O     0.31330   0.03329   0.36819   0.01267  Uiso   1.00
O2082  O     0.36012   0.03549   0.36473   0.01267  Uiso   1.00
O2083  O     0.34459   0.03235   0.28530   0.01267  Uiso   1.00
O2084  O     0.37807   0.03363   0.28531   0.01267  Uiso   1.00
O2085  O     0.38653   0.53477   0.26797   0.01267  Uiso   1.00
O2086  O     0.33963   0.53603   0.26527   0.01267  Uiso   1.00
O2087  O     0.35523   0.53143   0.38424   0.01267  Uiso   1.00
O2088  O     0.32171   0.53284   0.38512   0.01267  Uiso   1.00
H2089  H     0.27836   0.61034   0.29640   0.01267  Uiso   1.00
H2090  H     0.31803   0.56025   0.28748   0.01267  Uiso   1.00
H2091  H     0.29611   0.60087   0.27473   0.01267  Uiso   1.00
H2092  H     0.27928   0.58796   0.33030   0.01267  Uiso   1.00
H2093  H     0.30054   0.54786   0.34554   0.01267  Uiso   1.00
H2094  H     0.32017   0.53368   0.32346   0.01267  Uiso   1.00
C2095  C     0.31084   0.55093   0.31750   0.01267  Uiso   1.00
C2096  C     0.30975   0.56565   0.29745   0.01267  Uiso   1.00
C2097  C     0.29783   0.58779   0.29009   0.01267  Uiso   1.00
C2098  C     0.28823   0.58054   0.32178   0.01267  Uiso   1.00
C2099  C     0.29996   0.55859   0.32983   0.01267  Uiso   1.00
N2100  N     0.28749   0.59435   0.30234   0.01267  Uiso   1.00
Si2101 Si    0.48561   0.84225   0.23009   0.01267  Uiso   1.00
Si2102 Si    0.46278   0.81360   0.26027   0.01267  Uiso   1.00
Si2103 Si    0.45583   0.84479   0.30339   0.01267  Uiso   1.00
Si2104 Si    0.42475   0.84618   0.30399   0.01267  Uiso   1.00
Si2105 Si    0.41407   0.81247   0.26182   0.01267  Uiso   1.00
Si2106 Si    0.43775   0.85034   0.23538   0.01267  Uiso   1.00
Si2107 Si    0.45332   0.61381   0.30670   0.01267  Uiso   1.00
Si2108 Si    0.42279   0.61254   0.30363   0.01267  Uiso   1.00
Si2109 Si    0.41342   0.65538   0.26086   0.01267  Uiso   1.00
Si2110 Si    0.43728   0.60581   0.23693   0.01267  Uiso   1.00
Si2111 Si    0.41616   0.72596   0.33282   0.01267  Uiso   1.00
Si2112 Si    0.43725   0.75636   0.36392   0.01267  Uiso   1.00
Si2113 Si    0.44379   0.72491   0.20809   0.01267  Uiso   1.00
Si2114 Si    0.47525   0.72020   0.20453   0.01267  Uiso   1.00
Si2115 Si    0.48454   0.75344   0.36158   0.01267  Uiso   1.00
Si2116 Si    0.46086   0.72720   0.33492   0.01267  Uiso   1.00
Si2117 Si    0.41539   0.95611   0.33338   0.01267  Uiso   1.00
Si2118 Si    0.43782   0.91458   0.36251   0.01267  Uiso   1.00
Si2119 Si    0.44574   0.95877   0.20524   0.01267  Uiso   1.00
Si2120 Si    0.47637   0.95824   0.20332   0.01267  Uiso   1.00
Si2121 Si    0.48589   0.91164   0.36112   0.01267  Uiso   1.00
Si2122 Si    0.46224   0.95289   0.33494   0.01267  Uiso   1.00
Si2123 Si    0.51519   0.33982   0.36571   0.01267  Uiso   1.00
Si2124 Si    0.53830   0.31154   0.33588   0.01267  Uiso   1.00
Si2125 Si    0.54378   0.34875   0.29231   0.01267  Uiso   1.00
Si2126 Si    0.57535   0.34962   0.29268   0.01267  Uiso   1.00
Si2127 Si    0.58542   0.31200   0.33485   0.01267  Uiso   1.00
Si2128 Si    0.56293   0.33679   0.36427   0.01267  Uiso   1.00
Si2129 Si    0.51525   0.11132   0.36325   0.01267  Uiso   1.00
Si2130 Si    0.53833   0.15455   0.33438   0.01267  Uiso   1.00
Si2131 Si    0.54591   0.10962   0.29171   0.01267  Uiso   1.00
Si2132 Si    0.57663   0.10913   0.29336   0.01267  Uiso   1.00
Si2133 Si    0.58622   0.15438   0.33533   0.01267  Uiso   1.00
Si2134 Si    0.56257   0.11429   0.36166   0.01267  Uiso   1.00
Si2135 Si    0.58502   0.22684   0.26654   0.01267  Uiso   1.00
Si2136 Si    0.56174   0.25522   0.23712   0.01267  Uiso   1.00
Si2137 Si    0.55600   0.21915   0.39322   0.01267  Uiso   1.00
Si2138 Si    0.52432   0.21829   0.39315   0.01267  Uiso   1.00
Si2139 Si    0.51441   0.25572   0.23571   0.01267  Uiso   1.00
Si2140 Si    0.53677   0.22759   0.26509   0.01267  Uiso   1.00
Si2141 Si    0.58450   0.45707   0.26266   0.01267  Uiso   1.00
Si2142 Si    0.56165   0.41398   0.23388   0.01267  Uiso   1.00
Si2143 Si    0.55388   0.45421   0.39068   0.01267  Uiso   1.00
Si2144 Si    0.52311   0.45652   0.39276   0.01267  Uiso   1.00
Si2145 Si    0.51366   0.41346   0.23542   0.01267  Uiso   1.00
Si2146 Si    0.53740   0.45749   0.26093   0.01267  Uiso   1.00
Si2147 Si    0.51403   0.72581   0.36664   0.01267  Uiso   1.00
Si2148 Si    0.53718   0.75373   0.33673   0.01267  Uiso   1.00
Si2149 Si    0.54407   0.72051   0.29376   0.01267  Uiso   1.00
Si2150 Si    0.57531   0.72011   0.29205   0.01267  Uiso   1.00
Si2151 Si    0.58627   0.75573   0.33380   0.01267  Uiso   1.00
Si2152 Si    0.56312   0.72372   0.36221   0.01267  Uiso   1.00
Si2153 Si    0.51522   0.95587   0.36240   0.01267  Uiso   1.00
Si2154 Si    0.53766   0.91329   0.33321   0.01267  Uiso   1.00
Si2155 Si    0.54614   0.95420   0.29068   0.01267  Uiso   1.00
Si2156 Si    0.57689   0.95655   0.29215   0.01267  Uiso   1.00
Si2157 Si    0.58641   0.91313   0.33451   0.01267  Uiso   1.00
Si2158 Si    0.56218   0.95772   0.35950   0.01267  Uiso   1.00
Si2159 Si    0.58425   0.84128   0.26354   0.01267  Uiso   1.00
Si2160 Si    0.56226   0.81123   0.23372   0.01267  Uiso   1.00
Si2161 Si    0.55608   0.84424   0.38947   0.01267  Uiso   1.00
Si2162 Si    0.52487   0.84689   0.39162   0.01267  Uiso   1.00
Si2163 Si    0.53824   0.83795   0.26343   0.01267  Uiso   1.00
Si2164 Si    0.58433   0.61201   0.26209   0.01267  Uiso   1.00
Si2165 Si    0.56208   0.65359   0.23289   0.01267  Uiso   1.00
Si2166 Si    0.55410   0.60952   0.38974   0.01267  Uiso   1.00
Si2167 Si    0.52355   0.60919   0.39246   0.01267  Uiso   1.00
Si2168 Si    0.53812   0.61528   0.26135   0.01267  Uiso   1.00
Si2169 Si    0.48470   0.22929   0.22975   0.01267  Uiso   1.00
Si2170 Si    0.46142   0.25959   0.25988   0.01267  Uiso   1.00
Si2171 Si    0.45630   0.21824   0.30313   0.01267  Uiso   1.00
Si2172 Si    0.42475   0.21795   0.30261   0.01267  Uiso   1.00
Si2173 Si    0.41461   0.25459   0.26060   0.01267  Uiso   1.00
Si2174 Si    0.43712   0.23048   0.23100   0.01267  Uiso   1.00
Si2175 Si    0.48454   0.45578   0.23236   0.01267  Uiso   1.00
Si2176 Si    0.45350   0.45921   0.30399   0.01267  Uiso   1.00
Si2177 Si    0.42292   0.45901   0.30175   0.01267  Uiso   1.00
Si2178 Si    0.41358   0.41176   0.25996   0.01267  Uiso   1.00
Si2179 Si    0.43687   0.45258   0.23284   0.01267  Uiso   1.00
Si2180 Si    0.41489   0.34132   0.32827   0.01267  Uiso   1.00
Si2181 Si    0.43816   0.31292   0.35752   0.01267  Uiso   1.00
Si2182 Si    0.44397   0.34608   0.20155   0.01267  Uiso   1.00
Si2183 Si    0.47565   0.34841   0.20181   0.01267  Uiso   1.00
Si2184 Si    0.48566   0.31349   0.35932   0.01267  Uiso   1.00
Si2185 Si    0.46326   0.34015   0.32998   0.01267  Uiso   1.00
Si2186 Si    0.41536   0.11047   0.33276   0.01267  Uiso   1.00
Si2187 Si    0.43812   0.15440   0.36122   0.01267  Uiso   1.00
Si2188 Si    0.44602   0.11509   0.20448   0.01267  Uiso   1.00
Si2189 Si    0.47662   0.11234   0.20309   0.01267  Uiso   1.00
Si2190 Si    0.48628   0.15524   0.36035   0.01267  Uiso   1.00
Si2191 Si    0.46256   0.10986   0.33460   0.01267  Uiso   1.00
Si2192 Si    0.51557   0.81298   0.23426   0.01267  Uiso   1.00
Si2193 Si    0.51464   0.65490   0.23477   0.01267  Uiso   1.00
Si2194 Si    0.48492   0.60995   0.23394   0.01267  Uiso   1.00
Si2195 Si    0.46110   0.41691   0.26129   0.01267  Uiso   1.00
Al2196 Al    0.46188   0.65046   0.26330   0.01267  Uiso   1.00
O2197  O     0.47568   0.84207   0.24861   0.01267  Uiso   1.00
O2198  O     0.46408   0.83937   0.28312   0.01267  Uiso   1.00
O2199  O     0.44020   0.84616   0.29845   0.01267  Uiso   1.00
O2200  O     0.41593   0.83841   0.28432   0.01267  Uiso   1.00
O2201  O     0.42378   0.85166   0.24697   0.01267  Uiso   1.00
O2202  O     0.44980   0.84927   0.25087   0.01267  Uiso   1.00
O2203  O     0.47596   0.61481   0.25315   0.01267  Uiso   1.00
O2204  O     0.46328   0.63255   0.28899   0.01267  Uiso   1.00
O2205  O     0.43821   0.63325   0.30155   0.01267  Uiso   1.00
O2206  O     0.41542   0.62562   0.28292   0.01267  Uiso   1.00
O2207  O     0.42216   0.61659   0.24471   0.01267  Uiso   1.00
O2208  O     0.44751   0.61507   0.25451   0.01267  Uiso   1.00
O2209  O     0.46188   0.73502   0.25882   0.01267  Uiso   1.00
O2210  O     0.41719   0.73364   0.26075   0.01267  Uiso   1.00
O2211  O     0.48473   0.91280   0.21843   0.01267  Uiso   1.00
O2212  O     0.48288   0.78221   0.21461   0.01267  Uiso   1.00
O2213  O     0.47939   0.65082   0.21488   0.01267  Uiso   1.00
O2214  O     0.43838   0.91857   0.22261   0.01267  Uiso   1.00
O2215  O     0.43810   0.78664   0.22078   0.01267  Uiso   1.00
O2216  O     0.43987   0.65518   0.21820   0.01267  Uiso   1.00
O2217  O     0.59895   0.82722   0.25552   0.01267  Uiso   1.00
O2218  O     0.59797   0.64633   0.25521   0.01267  Uiso   1.00
O2219  O     0.42556   0.71887   0.35202   0.01267  Uiso   1.00
O2220  O     0.43734   0.72780   0.38616   0.01267  Uiso   1.00
O2221  O     0.45961   0.73234   0.20610   0.01267  Uiso   1.00
O2222  O     0.47963   0.71593   0.38143   0.01267  Uiso   1.00
O2223  O     0.47601   0.72869   0.34268   0.01267  Uiso   1.00
O2224  O     0.45139   0.74236   0.35356   0.01267  Uiso   1.00
O2225  O     0.42602   0.95211   0.35107   0.01267  Uiso   1.00
O2226  O     0.43842   0.94513   0.38447   0.01267  Uiso   1.00
O2227  O     0.46103   0.93507   0.20364   0.01267  Uiso   1.00
O2228  O     0.48220   0.95145   0.38112   0.01267  Uiso   1.00
O2229  O     0.47706   0.93936   0.34299   0.01267  Uiso   1.00
O2230  O     0.45179   0.92743   0.35147   0.01267  Uiso   1.00
O2231  O     0.43463   0.83589   0.36351   0.01267  Uiso   1.00
O2232  O     0.48314   0.83306   0.36445   0.01267  Uiso   1.00
O2233  O     0.41592   0.65609   0.32092   0.01267  Uiso   1.00
O2234  O     0.42177   0.78484   0.31883   0.01267  Uiso   1.00
O2235  O     0.42075   0.91604   0.31426   0.01267  Uiso   1.00
O2236  O     0.45801   0.65269   0.32668   0.01267  Uiso   1.00
O2237  O     0.45889   0.78135   0.31755   0.01267  Uiso   1.00
O2238  O     0.46003   0.91306   0.31450   0.01267  Uiso   1.00
O2239  O     0.49966   0.73304   0.35658   0.01267  Uiso   1.00
O2240  O     0.50128   0.92362   0.35570   0.01267  Uiso   1.00
O2241  O     0.52644   0.34312   0.34879   0.01267  Uiso   1.00
O2242  O     0.53903   0.35220   0.31517   0.01267  Uiso   1.00
O2243  O     0.55958   0.33962   0.29095   0.01267  Uiso   1.00
O2244  O     0.57982   0.35087   0.31557   0.01267  Uiso   1.00
O2245  O     0.57737   0.33585   0.35425   0.01267  Uiso   1.00
O2246  O     0.55209   0.31933   0.34752   0.01267  Uiso   1.00
O2247  O     0.52649   0.12021   0.34655   0.01267  Uiso   1.00
O2248  O     0.53883   0.11954   0.31294   0.01267  Uiso   1.00
O2249  O     0.56126   0.13171   0.29339   0.01267  Uiso   1.00
O2250  O     0.58232   0.11284   0.31566   0.01267  Uiso   1.00
O2251  O     0.57740   0.12841   0.35378   0.01267  Uiso   1.00
O2252  O     0.55225   0.14438   0.34566   0.01267  Uiso   1.00
O2253  O     0.53551   0.23348   0.33177   0.01267  Uiso   1.00
O2254  O     0.58352   0.23273   0.33135   0.01267  Uiso   1.00
O2255  O     0.51502   0.41015   0.37746   0.01267  Uiso   1.00
O2256  O     0.51776   0.27968   0.38114   0.01267  Uiso   1.00
O2257  O     0.51978   0.14838   0.38345   0.01267  Uiso   1.00
O2258  O     0.56032   0.41021   0.37321   0.01267  Uiso   1.00
O2259  O     0.56246   0.28235   0.38192   0.01267  Uiso   1.00
O2260  O     0.56050   0.15012   0.38290   0.01267  Uiso   1.00
O2261  O     0.40072   0.33011   0.33871   0.01267  Uiso   1.00
O2262  O     0.40159   0.14229   0.34054   0.01267  Uiso   1.00
O2263  O     0.57397   0.22459   0.24934   0.01267  Uiso   1.00
O2264  O     0.56100   0.21841   0.21589   0.01267  Uiso   1.00
O2265  O     0.54013   0.22621   0.39221   0.01267  Uiso   1.00
O2266  O     0.51935   0.21892   0.21576   0.01267  Uiso   1.00
O2267  O     0.52256   0.22717   0.25440   0.01267  Uiso   1.00
O2268  O     0.54811   0.24252   0.24887   0.01267  Uiso   1.00
O2269  O     0.57359   0.45009   0.24532   0.01267  Uiso   1.00
O2270  O     0.56144   0.44091   0.21136   0.01267  Uiso   1.00
O2271  O     0.53846   0.43394   0.39315   0.01267  Uiso   1.00
O2272  O     0.51704   0.45039   0.21474   0.01267  Uiso   1.00
O2273  O     0.52247   0.44599   0.25302   0.01267  Uiso   1.00
O2274  O     0.54767   0.43158   0.24433   0.01267  Uiso   1.00
O2275  O     0.56385   0.33442   0.23412   0.01267  Uiso   1.00
O2276  O     0.51702   0.33506   0.23340   0.01267  Uiso   1.00
O2277  O     0.58481   0.15787   0.27889   0.01267  Uiso   1.00
O2278  O     0.58252   0.28864   0.28144   0.01267  Uiso   1.00
O2279  O     0.57949   0.41968   0.28260   0.01267  Uiso   1.00
O2280  O     0.53886   0.15540   0.27517   0.01267  Uiso   1.00
O2281  O     0.53683   0.28555   0.28179   0.01267  Uiso   1.00
O2282  O     0.53944   0.41786   0.28163   0.01267  Uiso   1.00
O2283  O     0.49902   0.24052   0.23968   0.01267  Uiso   1.00
O2284  O     0.49827   0.42423   0.24071   0.01267  Uiso   1.00
O2285  O     0.52502   0.72359   0.34934   0.01267  Uiso   1.00
O2286  O     0.53663   0.71987   0.31497   0.01267  Uiso   1.00
O2287  O     0.55978   0.72517   0.29735   0.01267  Uiso   1.00
O2288  O     0.58380   0.72323   0.31220   0.01267  Uiso   1.00
O2289  O     0.57680   0.72140   0.35008   0.01267  Uiso   1.00
O2290  O     0.55099   0.73498   0.34709   0.01267  Uiso   1.00
O2291  O     0.52551   0.94999   0.34416   0.01267  Uiso   1.00
O2292  O     0.53766   0.93537   0.31022   0.01267  Uiso   1.00
O2293  O     0.56150   0.93559   0.29460   0.01267  Uiso   1.00
O2294  O     0.58421   0.94762   0.31316   0.01267  Uiso   1.00
O2295  O     0.57691   0.94675   0.35094   0.01267  Uiso   1.00
O2296  O     0.55159   0.93487   0.34291   0.01267  Uiso   1.00
O2297  O     0.53574   0.83363   0.33513   0.01267  Uiso   1.00
O2298  O     0.58304   0.83463   0.33288   0.01267  Uiso   1.00
O2299  O     0.51433   0.65600   0.37878   0.01267  Uiso   1.00
O2300  O     0.51637   0.78737   0.38167   0.01267  Uiso   1.00
O2301  O     0.52092   0.91748   0.38172   0.01267  Uiso   1.00
O2302  O     0.56173   0.65241   0.37315   0.01267  Uiso   1.00
O2303  O     0.56354   0.78351   0.37833   0.01267  Uiso   1.00
O2304  O     0.56005   0.91483   0.37956   0.01267  Uiso   1.00
O2305  O     0.40138   0.74324   0.34019   0.01267  Uiso   1.00
O2306  O     0.40158   0.92438   0.34110   0.01267  Uiso   1.00
O2307  O     0.57457   0.84670   0.24457   0.01267  Uiso   1.00
O2308  O     0.56045   0.84616   0.21239   0.01267  Uiso   1.00
O2309  O     0.54032   0.83186   0.38769   0.01267  Uiso   1.00
O2310  O     0.52170   0.85033   0.21500   0.01267  Uiso   1.00
O2311  O     0.52374   0.83465   0.25374   0.01267  Uiso   1.00
O2312  O     0.54900   0.82034   0.24663   0.01267  Uiso   1.00
O2313  O     0.57406   0.61622   0.24383   0.01267  Uiso   1.00
O2314  O     0.56059   0.62156   0.21120   0.01267  Uiso   1.00
O2315  O     0.53875   0.63267   0.38997   0.01267  Uiso   1.00
O2316  O     0.51943   0.61365   0.21549   0.01267  Uiso   1.00
O2317  O     0.52328   0.63111   0.25378   0.01267  Uiso   1.00
O2318  O     0.54848   0.64207   0.24507   0.01267  Uiso   1.00
O2319  O     0.56507   0.73232   0.23113   0.01267  Uiso   1.00
O2320  O     0.51686   0.73334   0.23064   0.01267  Uiso   1.00
O2321  O     0.58393   0.91087   0.27559   0.01267  Uiso   1.00
O2322  O     0.57925   0.78135   0.27774   0.01267  Uiso   1.00
O2323  O     0.57822   0.64987   0.28123   0.01267  Uiso   1.00
O2324  O     0.54070   0.91203   0.27203   0.01267  Uiso   1.00
O2325  O     0.53910   0.78430   0.28128   0.01267  Uiso   1.00
O2326  O     0.54037   0.65177   0.28244   0.01267  Uiso   1.00
O2327  O     0.50054   0.83442   0.23818   0.01267  Uiso   1.00
O2328  O     0.49951   0.63868   0.23983   0.01267  Uiso   1.00
O2329  O     0.47376   0.23337   0.24700   0.01267  Uiso   1.00
O2330  O     0.46080   0.21641   0.28015   0.01267  Uiso   1.00
O2331  O     0.44049   0.22745   0.30473   0.01267  Uiso   1.00
O2332  O     0.42045   0.21506   0.27961   0.01267  Uiso   1.00
O2333  O     0.42267   0.23339   0.24098   0.01267  Uiso   1.00
O2334  O     0.44792   0.24988   0.24759   0.01267  Uiso   1.00
O2335  O     0.47360   0.44695   0.24951   0.01267  Uiso   1.00
O2336  O     0.46043   0.45456   0.28244   0.01267  Uiso   1.00
O2337  O     0.43824   0.43554   0.30246   0.01267  Uiso   1.00
O2338  O     0.41766   0.45520   0.27919   0.01267  Uiso   1.00
O2339  O     0.42228   0.43391   0.24107   0.01267  Uiso   1.00
O2340  O     0.44758   0.42840   0.24920   0.01267  Uiso   1.00
O2341  O     0.46321   0.33781   0.26505   0.01267  Uiso   1.00
O2342  O     0.41595   0.33371   0.26482   0.01267  Uiso   1.00
O2343  O     0.48434   0.15683   0.21931   0.01267  Uiso   1.00
O2344  O     0.48236   0.28576   0.21299   0.01267  Uiso   1.00
O2345  O     0.47996   0.41708   0.21246   0.01267  Uiso   1.00
O2346  O     0.43963   0.15614   0.22266   0.01267  Uiso   1.00
O2347  O     0.43772   0.28201   0.21263   0.01267  Uiso   1.00
O2348  O     0.43938   0.41390   0.21219   0.01267  Uiso   1.00
O2349  O     0.59939   0.23485   0.25660   0.01267  Uiso   1.00
O2350  O     0.59816   0.42453   0.25491   0.01267  Uiso   1.00
O2351  O     0.42617   0.34559   0.34509   0.01267  Uiso   1.00
O2352  O     0.43875   0.34782   0.37900   0.01267  Uiso   1.00
O2353  O     0.45987   0.33971   0.20217   0.01267  Uiso   1.00
O2354  O     0.48092   0.35101   0.37927   0.01267  Uiso   1.00
O2355  O     0.47750   0.34243   0.34069   0.01267  Uiso   1.00
O2356  O     0.45199   0.32609   0.34634   0.01267  Uiso   1.00
O2357  O     0.42616   0.11649   0.35024   0.01267  Uiso   1.00
O2358  O     0.43828   0.13126   0.38410   0.01267  Uiso   1.00
O2359  O     0.46137   0.13647   0.20178   0.01267  Uiso   1.00
O2360  O     0.48329   0.12100   0.38152   0.01267  Uiso   1.00
O2361  O     0.47729   0.12219   0.34317   0.01267  Uiso   1.00
O2362  O     0.45208   0.13608   0.35095   0.01267  Uiso   1.00
O2363  O     0.43569   0.23376   0.35968   0.01267  Uiso   1.00
O2364  O     0.48322   0.23424   0.36163   0.01267  Uiso   1.00
O2365  O     0.41439   0.41036   0.31590   0.01267  Uiso   1.00
O2366  O     0.41754   0.28017   0.31320   0.01267  Uiso   1.00
O2367  O     0.42031   0.14893   0.31301   0.01267  Uiso   1.00
O2368  O     0.46113   0.41167   0.31950   0.01267  Uiso   1.00
O2369  O     0.46335   0.28126   0.31366   0.01267  Uiso   1.00
O2370  O     0.46068   0.14952   0.31386   0.01267  Uiso   1.00
O2371  O     0.50106   0.32947   0.35516   0.01267  Uiso   1.00
O2372  O     0.50166   0.14318   0.35489   0.01267  Uiso   1.00
O2373  O     0.48671   0.53297   0.22673   0.01267  Uiso   1.00
O2374  O     0.43802   0.53056   0.22803   0.01267  Uiso   1.00
O2375  O     0.45457   0.53483   0.31211   0.01267  Uiso   1.00
O2376  O     0.42141   0.53464   0.30960   0.01267  Uiso   1.00
O2377  O     0.41327   0.03307   0.32711   0.01267  Uiso   1.00
O2378  O     0.46031   0.03147   0.33052   0.01267  Uiso   1.00
O2379  O     0.44491   0.03735   0.21008   0.01267  Uiso   1.00
O2380  O     0.47765   0.03542   0.20994   0.01267  Uiso   1.00
O2381  O     0.51330   0.03329   0.36819   0.01267  Uiso   1.00
O2382  O     0.56012   0.03549   0.36473   0.01267  Uiso   1.00
O2383  O     0.54459   0.03235   0.28530   0.01267  Uiso   1.00
O2384  O     0.57807   0.03363   0.28531   0.01267  Uiso   1.00
O2385  O     0.58653   0.53477   0.26797   0.01267  Uiso   1.00
O2386  O     0.53963   0.53603   0.26527   0.01267  Uiso   1.00
O2387  O     0.55523   0.53143   0.38424   0.01267  Uiso   1.00
O2388  O     0.52171   0.53284   0.38512   0.01267  Uiso   1.00
H2389  H     0.47836   0.61034   0.29640   0.01267  Uiso   1.00
H2390  H     0.51803   0.56025   0.28748   0.01267  Uiso   1.00
H2391  H     0.49611   0.60087   0.27473   0.01267  Uiso   1.00
H2392  H     0.47928   0.58796   0.33030   0.01267  Uiso   1.00
H2393  H     0.50054   0.54786   0.34554   0.01267  Uiso   1.00
H2394  H     0.52017   0.53368   0.32346   0.01267  Uiso   1.00
C2395  C     0.51084   0.55093   0.31750   0.01267  Uiso   1.00
C2396  C     0.50975   0.56565   0.29745   0.01267  Uiso   1.00
C2397  C     0.49783   0.58779   0.29009   0.01267  Uiso   1.00
C2398  C     0.48823   0.58054   0.32178   0.01267  Uiso   1.00
C2399  C     0.49996   0.55859   0.32983   0.01267  Uiso   1.00
N2400  N     0.48749   0.59435   0.30234   0.01267  Uiso   1.00
Si2401 Si    0.68561   0.84225   0.23009   0.01267  Uiso   1.00
Si2402 Si    0.66278   0.81360   0.26027   0.01267  Uiso   1.00
Si2403 Si    0.65583   0.84479   0.30339   0.01267  Uiso   1.00
Si2404 Si    0.62475   0.84618   0.30399   0.01267  Uiso   1.00
Si2405 Si    0.61407   0.81247   0.26182   0.01267  Uiso   1.00
Si2406 Si    0.63775   0.85034   0.23538   0.01267  Uiso   1.00
Si2407 Si    0.65332   0.61381   0.30670   0.01267  Uiso   1.00
Si2408 Si    0.62279   0.61254   0.30363   0.01267  Uiso   1.00
Si2409 Si    0.61342   0.65538   0.26086   0.01267  Uiso   1.00
Si2410 Si    0.63728   0.60581   0.23693   0.01267  Uiso   1.00
Si2411 Si    0.61616   0.72596   0.33282   0.01267  Uiso   1.00
Si2412 Si    0.63725   0.75636   0.36392   0.01267  Uiso   1.00
Si2413 Si    0.64379   0.72491   0.20809   0.01267  Uiso   1.00
Si2414 Si    0.67525   0.72020   0.20453   0.01267  Uiso   1.00
Si2415 Si    0.68454   0.75344   0.36158   0.01267  Uiso   1.00
Si2416 Si    0.66086   0.72720   0.33492   0.01267  Uiso   1.00
Si2417 Si    0.61539   0.95611   0.33338   0.01267  Uiso   1.00
Si2418 Si    0.63782   0.91458   0.36251   0.01267  Uiso   1.00
Si2419 Si    0.64574   0.95877   0.20524   0.01267  Uiso   1.00
Si2420 Si    0.67637   0.95824   0.20332   0.01267  Uiso   1.00
Si2421 Si    0.68589   0.91164   0.36112   0.01267  Uiso   1.00
Si2422 Si    0.66224   0.95289   0.33494   0.01267  Uiso   1.00
Si2423 Si    0.71519   0.33982   0.36571   0.01267  Uiso   1.00
Si2424 Si    0.73830   0.31154   0.33588   0.01267  Uiso   1.00
Si2425 Si    0.74378   0.34875   0.29231   0.01267  Uiso   1.00
Si2426 Si    0.77535   0.34962   0.29268   0.01267  Uiso   1.00
Si2427 Si    0.78542   0.31200   0.33485   0.01267  Uiso   1.00
Si2428 Si    0.76293   0.33679   0.36427   0.01267  Uiso   1.00
Si2429 Si    0.71525   0.11132   0.36325   0.01267  Uiso   1.00
Si2430 Si    0.73833   0.15455   0.33438   0.01267  Uiso   1.00
Si2431 Si    0.74591   0.10962   0.29171   0.01267  Uiso   1.00
Si2432 Si    0.77663   0.10913   0.29336   0.01267  Uiso   1.00
Si2433 Si    0.78622   0.15438   0.33533   0.01267  Uiso   1.00
Si2434 Si    0.76257   0.11429   0.36166   0.01267  Uiso   1.00
Si2435 Si    0.78502   0.22684   0.26654   0.01267  Uiso   1.00
Si2436 Si    0.76174   0.25522   0.23712   0.01267  Uiso   1.00
Si2437 Si    0.75600   0.21915   0.39322   0.01267  Uiso   1.00
Si2438 Si    0.72432   0.21829   0.39315   0.01267  Uiso   1.00
Si2439 Si    0.71441   0.25572   0.23571   0.01267  Uiso   1.00
Si2440 Si    0.73677   0.22759   0.26509   0.01267  Uiso   1.00
Si2441 Si    0.78450   0.45707   0.26266   0.01267  Uiso   1.00
Si2442 Si    0.76165   0.41398   0.23388   0.01267  Uiso   1.00
Si2443 Si    0.75388   0.45421   0.39068   0.01267  Uiso   1.00
Si2444 Si    0.72311   0.45652   0.39276   0.01267  Uiso   1.00
Si2445 Si    0.71366   0.41346   0.23542   0.01267  Uiso   1.00
Si2446 Si    0.73740   0.45749   0.26093   0.01267  Uiso   1.00
Si2447 Si    0.71403   0.72581   0.36664   0.01267  Uiso   1.00
Si2448 Si    0.73718   0.75373   0.33673   0.01267  Uiso   1.00
Si2449 Si    0.74407   0.72051   0.29376   0.01267  Uiso   1.00
Si2450 Si    0.77531   0.72011   0.29205   0.01267  Uiso   1.00
Si2451 Si    0.78627   0.75573   0.33380   0.01267  Uiso   1.00
Si2452 Si    0.76312   0.72372   0.36221   0.01267  Uiso   1.00
Si2453 Si    0.71522   0.95587   0.36240   0.01267  Uiso   1.00
Si2454 Si    0.73766   0.91329   0.33321   0.01267  Uiso   1.00
Si2455 Si    0.74614   0.95420   0.29068   0.01267  Uiso   1.00
Si2456 Si    0.77689   0.95655   0.29215   0.01267  Uiso   1.00
Si2457 Si    0.78641   0.91313   0.33451   0.01267  Uiso   1.00
Si2458 Si    0.76218   0.95772   0.35950   0.01267  Uiso   1.00
Si2459 Si    0.78425   0.84128   0.26354   0.01267  Uiso   1.00
Si2460 Si    0.76226   0.81123   0.23372   0.01267  Uiso   1.00
Si2461 Si    0.75608   0.84424   0.38947   0.01267  Uiso   1.00
Si2462 Si    0.72487   0.84689   0.39162   0.01267  Uiso   1.00
Si2463 Si    0.73824   0.83795   0.26343   0.01267  Uiso   1.00
Si2464 Si    0.78433   0.61201   0.26209   0.01267  Uiso   1.00
Si2465 Si    0.76208   0.65359   0.23289   0.01267  Uiso   1.00
Si2466 Si    0.75410   0.60952   0.38974   0.01267  Uiso   1.00
Si2467 Si    0.72355   0.60919   0.39246   0.01267  Uiso   1.00
Si2468 Si    0.73812   0.61528   0.26135   0.01267  Uiso   1.00
Si2469 Si    0.68470   0.22929   0.22975   0.01267  Uiso   1.00
Si2470 Si    0.66142   0.25959   0.25988   0.01267  Uiso   1.00
Si2471 Si    0.65630   0.21824   0.30313   0.01267  Uiso   1.00
Si2472 Si    0.62475   0.21795   0.30261   0.01267  Uiso   1.00
Si2473 Si    0.61461   0.25459   0.26060   0.01267  Uiso   1.00
Si2474 Si    0.63712   0.23048   0.23100   0.01267  Uiso   1.00
Si2475 Si    0.68454   0.45578   0.23236   0.01267  Uiso   1.00
Si2476 Si    0.65350   0.45921   0.30399   0.01267  Uiso   1.00
Si2477 Si    0.62292   0.45901   0.30175   0.01267  Uiso   1.00
Si2478 Si    0.61358   0.41176   0.25996   0.01267  Uiso   1.00
Si2479 Si    0.63687   0.45258   0.23284   0.01267  Uiso   1.00
Si2480 Si    0.61489   0.34132   0.32827   0.01267  Uiso   1.00
Si2481 Si    0.63816   0.31292   0.35752   0.01267  Uiso   1.00
Si2482 Si    0.64397   0.34608   0.20155   0.01267  Uiso   1.00
Si2483 Si    0.67565   0.34841   0.20181   0.01267  Uiso   1.00
Si2484 Si    0.68566   0.31349   0.35932   0.01267  Uiso   1.00
Si2485 Si    0.66326   0.34015   0.32998   0.01267  Uiso   1.00
Si2486 Si    0.61536   0.11047   0.33276   0.01267  Uiso   1.00
Si2487 Si    0.63812   0.15440   0.36122   0.01267  Uiso   1.00
Si2488 Si    0.64602   0.11509   0.20448   0.01267  Uiso   1.00
Si2489 Si    0.67662   0.11234   0.20309   0.01267  Uiso   1.00
Si2490 Si    0.68628   0.15524   0.36035   0.01267  Uiso   1.00
Si2491 Si    0.66256   0.10986   0.33460   0.01267  Uiso   1.00
Si2492 Si    0.71557   0.81298   0.23426   0.01267  Uiso   1.00
Si2493 Si    0.71464   0.65490   0.23477   0.01267  Uiso   1.00
Si2494 Si    0.68492   0.60995   0.23394   0.01267  Uiso   1.00
Si2495 Si    0.66110   0.41691   0.26129   0.01267  Uiso   1.00
Al2496 Al    0.66188   0.65046   0.26330   0.01267  Uiso   1.00
O2497  O     0.67568   0.84207   0.24861   0.01267  Uiso   1.00
O2498  O     0.66408   0.83937   0.28312   0.01267  Uiso   1.00
O2499  O     0.64020   0.84616   0.29845   0.01267  Uiso   1.00
O2500  O     0.61593   0.83841   0.28432   0.01267  Uiso   1.00
O2501  O     0.62378   0.85166   0.24697   0.01267  Uiso   1.00
O2502  O     0.64980   0.84927   0.25087   0.01267  Uiso   1.00
O2503  O     0.67596   0.61481   0.25315   0.01267  Uiso   1.00
O2504  O     0.66328   0.63255   0.28899   0.01267  Uiso   1.00
O2505  O     0.63821   0.63325   0.30155   0.01267  Uiso   1.00
O2506  O     0.61542   0.62562   0.28292   0.01267  Uiso   1.00
O2507  O     0.62216   0.61659   0.24471   0.01267  Uiso   1.00
O2508  O     0.64751   0.61507   0.25451   0.01267  Uiso   1.00
O2509  O     0.66188   0.73502   0.25882   0.01267  Uiso   1.00
O2510  O     0.61719   0.73364   0.26075   0.01267  Uiso   1.00
O2511  O     0.68473   0.91280   0.21843   0.01267  Uiso   1.00
O2512  O     0.68288   0.78221   0.21461   0.01267  Uiso   1.00
O2513  O     0.67939   0.65082   0.21488   0.01267  Uiso   1.00
O2514  O     0.63838   0.91857   0.22261   0.01267  Uiso   1.00
O2515  O     0.63810   0.78664   0.22078   0.01267  Uiso   1.00
O2516  O     0.63988   0.65518   0.21820   0.01267  Uiso   1.00
O2517  O     0.79895   0.82722   0.25552   0.01267  Uiso   1.00
O2518  O     0.79797   0.64633   0.25521   0.01267  Uiso   1.00
O2519  O     0.62556   0.71887   0.35202   0.01267  Uiso   1.00
O2520  O     0.63734   0.72780   0.38616   0.01267  Uiso   1.00
O2521  O     0.65961   0.73234   0.20610   0.01267  Uiso   1.00
O2522  O     0.67963   0.71593   0.38143   0.01267  Uiso   1.00
O2523  O     0.67601   0.72869   0.34268   0.01267  Uiso   1.00
O2524  O     0.65139   0.74236   0.35356   0.01267  Uiso   1.00
O2525  O     0.62602   0.95211   0.35107   0.01267  Uiso   1.00
O2526  O     0.63842   0.94513   0.38447   0.01267  Uiso   1.00
O2527  O     0.66103   0.93507   0.20364   0.01267  Uiso   1.00
O2528  O     0.68220   0.95145   0.38112   0.01267  Uiso   1.00
O2529  O     0.67706   0.93936   0.34299   0.01267  Uiso   1.00
O2530  O     0.65179   0.92743   0.35147   0.01267  Uiso   1.00
O2531  O     0.63463   0.83589   0.36351   0.01267  Uiso   1.00
O2532  O     0.68314   0.83306   0.36445   0.01267  Uiso   1.00
O2533  O     0.61592   0.65609   0.32092   0.01267  Uiso   1.00
O2534  O     0.62177   0.78484   0.31883   0.01267  Uiso   1.00
O2535  O     0.62075   0.91604   0.31426   0.01267  Uiso   1.00
O2536  O     0.65801   0.65269   0.32668   0.01267  Uiso   1.00
O2537  O     0.65889   0.78135   0.31755   0.01267  Uiso   1.00
O2538  O     0.66003   0.91306   0.31450   0.01267  Uiso   1.00
O2539  O     0.69966   0.73304   0.35658   0.01267  Uiso   1.00
O2540  O     0.70128   0.92362   0.35570   0.01267  Uiso   1.00
O2541  O     0.72644   0.34312   0.34879   0.01267  Uiso   1.00
O2542  O     0.73903   0.35220   0.31517   0.01267  Uiso   1.00
O2543  O     0.75958   0.33962   0.29095   0.01267  Uiso   1.00
O2544  O     0.77982   0.35087   0.31557   0.01267  Uiso   1.00
O2545  O     0.77737   0.33585   0.35425   0.01267  Uiso   1.00
O2546  O     0.75209   0.31933   0.34752   0.01267  Uiso   1.00
O2547  O     0.72649   0.12021   0.34655   0.01267  Uiso   1.00
O2548  O     0.73883   0.11954   0.31294   0.01267  Uiso   1.00
O2549  O     0.76126   0.13171   0.29339   0.01267  Uiso   1.00
O2550  O     0.78232   0.11284   0.31566   0.01267  Uiso   1.00
O2551  O     0.77740   0.12841   0.35378   0.01267  Uiso   1.00
O2552  O     0.75225   0.14438   0.34566   0.01267  Uiso   1.00
O2553  O     0.73551   0.23348   0.33177   0.01267  Uiso   1.00
O2554  O     0.78352   0.23273   0.33135   0.01267  Uiso   1.00
O2555  O     0.71502   0.41015   0.37746   0.01267  Uiso   1.00
O2556  O     0.71776   0.27968   0.38114   0.01267  Uiso   1.00
O2557  O     0.71978   0.14838   0.38345   0.01267  Uiso   1.00
O2558  O     0.76032   0.41021   0.37321   0.01267  Uiso   1.00
O2559  O     0.76246   0.28235   0.38192   0.01267  Uiso   1.00
O2560  O     0.76050   0.15012   0.38290   0.01267  Uiso   1.00
O2561  O     0.60072   0.33011   0.33871   0.01267  Uiso   1.00
O2562  O     0.60159   0.14229   0.34054   0.01267  Uiso   1.00
O2563  O     0.77397   0.22459   0.24934   0.01267  Uiso   1.00
O2564  O     0.76100   0.21841   0.21589   0.01267  Uiso   1.00
O2565  O     0.74013   0.22621   0.39221   0.01267  Uiso   1.00
O2566  O     0.71935   0.21892   0.21576   0.01267  Uiso   1.00
O2567  O     0.72256   0.22717   0.25440   0.01267  Uiso   1.00
O2568  O     0.74811   0.24252   0.24887   0.01267  Uiso   1.00
O2569  O     0.77359   0.45009   0.24532   0.01267  Uiso   1.00
O2570  O     0.76144   0.44091   0.21136   0.01267  Uiso   1.00
O2571  O     0.73846   0.43394   0.39315   0.01267  Uiso   1.00
O2572  O     0.71704   0.45039   0.21474   0.01267  Uiso   1.00
O2573  O     0.72247   0.44599   0.25302   0.01267  Uiso   1.00
O2574  O     0.74767   0.43158   0.24433   0.01267  Uiso   1.00
O2575  O     0.76385   0.33442   0.23412   0.01267  Uiso   1.00
O2576  O     0.71702   0.33506   0.23340   0.01267  Uiso   1.00
O2577  O     0.78481   0.15787   0.27889   0.01267  Uiso   1.00
O2578  O     0.78252   0.28864   0.28144   0.01267  Uiso   1.00
O2579  O     0.77949   0.41968   0.28260   0.01267  Uiso   1.00
O2580  O     0.73886   0.15540   0.27517   0.01267  Uiso   1.00
O2581  O     0.73683   0.28555   0.28179   0.01267  Uiso   1.00
O2582  O     0.73944   0.41786   0.28163   0.01267  Uiso   1.00
O2583  O     0.69902   0.24052   0.23968   0.01267  Uiso   1.00
O2584  O     0.69827   0.42423   0.24071   0.01267  Uiso   1.00
O2585  O     0.72502   0.72359   0.34934   0.01267  Uiso   1.00
O2586  O     0.73663   0.71987   0.31497   0.01267  Uiso   1.00
O2587  O     0.75978   0.72517   0.29735   0.01267  Uiso   1.00
O2588  O     0.78380   0.72323   0.31220   0.01267  Uiso   1.00
O2589  O     0.77680   0.72140   0.35008   0.01267  Uiso   1.00
O2590  O     0.75099   0.73498   0.34709   0.01267  Uiso   1.00
O2591  O     0.72551   0.94999   0.34416   0.01267  Uiso   1.00
O2592  O     0.73766   0.93537   0.31022   0.01267  Uiso   1.00
O2593  O     0.76150   0.93559   0.29460   0.01267  Uiso   1.00
O2594  O     0.78421   0.94762   0.31316   0.01267  Uiso   1.00
O2595  O     0.77691   0.94675   0.35094   0.01267  Uiso   1.00
O2596  O     0.75159   0.93487   0.34291   0.01267  Uiso   1.00
O2597  O     0.73574   0.83363   0.33513   0.01267  Uiso   1.00
O2598  O     0.78304   0.83463   0.33288   0.01267  Uiso   1.00
O2599  O     0.71433   0.65600   0.37878   0.01267  Uiso   1.00
O2600  O     0.71637   0.78737   0.38167   0.01267  Uiso   1.00
O2601  O     0.72092   0.91748   0.38172   0.01267  Uiso   1.00
O2602  O     0.76173   0.65241   0.37315   0.01267  Uiso   1.00
O2603  O     0.76354   0.78351   0.37833   0.01267  Uiso   1.00
O2604  O     0.76005   0.91483   0.37956   0.01267  Uiso   1.00
O2605  O     0.60138   0.74324   0.34019   0.01267  Uiso   1.00
O2606  O     0.60158   0.92438   0.34110   0.01267  Uiso   1.00
O2607  O     0.77457   0.84670   0.24457   0.01267  Uiso   1.00
O2608  O     0.76045   0.84616   0.21239   0.01267  Uiso   1.00
O2609  O     0.74032   0.83186   0.38769   0.01267  Uiso   1.00
O2610  O     0.72170   0.85033   0.21500   0.01267  Uiso   1.00
O2611  O     0.72374   0.83465   0.25374   0.01267  Uiso   1.00
O2612  O     0.74900   0.82034   0.24663   0.01267  Uiso   1.00
O2613  O     0.77406   0.61622   0.24383   0.01267  Uiso   1.00
O2614  O     0.76059   0.62156   0.21120   0.01267  Uiso   1.00
O2615  O     0.73875   0.63267   0.38997   0.01267  Uiso   1.00
O2616  O     0.71943   0.61365   0.21549   0.01267  Uiso   1.00
O2617  O     0.72328   0.63111   0.25378   0.01267  Uiso   1.00
O2618  O     0.74848   0.64207   0.24507   0.01267  Uiso   1.00
O2619  O     0.76507   0.73232   0.23113   0.01267  Uiso   1.00
O2620  O     0.71686   0.73334   0.23064   0.01267  Uiso   1.00
O2621  O     0.78393   0.91087   0.27559   0.01267  Uiso   1.00
O2622  O     0.77925   0.78135   0.27774   0.01267  Uiso   1.00
O2623  O     0.77822   0.64987   0.28123   0.01267  Uiso   1.00
O2624  O     0.74070   0.91203   0.27203   0.01267  Uiso   1.00
O2625  O     0.73910   0.78430   0.28128   0.01267  Uiso   1.00
O2626  O     0.74037   0.65177   0.28244   0.01267  Uiso   1.00
O2627  O     0.70054   0.83442   0.23818   0.01267  Uiso   1.00
O2628  O     0.69951   0.63868   0.23983   0.01267  Uiso   1.00
O2629  O     0.67376   0.23337   0.24700   0.01267  Uiso   1.00
O2630  O     0.66080   0.21641   0.28015   0.01267  Uiso   1.00
O2631  O     0.64049   0.22745   0.30473   0.01267  Uiso   1.00
O2632  O     0.62045   0.21506   0.27961   0.01267  Uiso   1.00
O2633  O     0.62267   0.23339   0.24098   0.01267  Uiso   1.00
O2634  O     0.64792   0.24988   0.24759   0.01267  Uiso   1.00
O2635  O     0.67360   0.44695   0.24951   0.01267  Uiso   1.00
O2636  O     0.66043   0.45456   0.28244   0.01267  Uiso   1.00
O2637  O     0.63824   0.43554   0.30246   0.01267  Uiso   1.00
O2638  O     0.61766   0.45520   0.27919   0.01267  Uiso   1.00
O2639  O     0.62228   0.43391   0.24107   0.01267  Uiso   1.00
O2640  O     0.64758   0.42840   0.24920   0.01267  Uiso   1.00
O2641  O     0.66321   0.33781   0.26505   0.01267  Uiso   1.00
O2642  O     0.61595   0.33371   0.26482   0.01267  Uiso   1.00
O2643  O     0.68434   0.15683   0.21931   0.01267  Uiso   1.00
O2644  O     0.68236   0.28576   0.21299   0.01267  Uiso   1.00
O2645  O     0.67996   0.41708   0.21246   0.01267  Uiso   1.00
O2646  O     0.63963   0.15614   0.22266   0.01267  Uiso   1.00
O2647  O     0.63772   0.28201   0.21263   0.01267  Uiso   1.00
O2648  O     0.63938   0.41390   0.21219   0.01267  Uiso   1.00
O2649  O     0.79939   0.23485   0.25660   0.01267  Uiso   1.00
O2650  O     0.79816   0.42453   0.25491   0.01267  Uiso   1.00
O2651  O     0.62617   0.34559   0.34509   0.01267  Uiso   1.00
O2652  O     0.63875   0.34782   0.37900   0.01267  Uiso   1.00
O2653  O     0.65987   0.33971   0.20217   0.01267  Uiso   1.00
O2654  O     0.68092   0.35101   0.37927   0.01267  Uiso   1.00
O2655  O     0.67750   0.34243   0.34069   0.01267  Uiso   1.00
O2656  O     0.65199   0.32609   0.34634   0.01267  Uiso   1.00
O2657  O     0.62616   0.11649   0.35024   0.01267  Uiso   1.00
O2658  O     0.63828   0.13126   0.38410   0.01267  Uiso   1.00
O2659  O     0.66137   0.13647   0.20178   0.01267  Uiso   1.00
O2660  O     0.68329   0.12100   0.38152   0.01267  Uiso   1.00
O2661  O     0.67729   0.12219   0.34317   0.01267  Uiso   1.00
O2662  O     0.65208   0.13608   0.35095   0.01267  Uiso   1.00
O2663  O     0.63569   0.23376   0.35968   0.01267  Uiso   1.00
O2664  O     0.68322   0.23424   0.36163   0.01267  Uiso   1.00
O2665  O     0.61439   0.41036   0.31590   0.01267  Uiso   1.00
O2666  O     0.61754   0.28017   0.31320   0.01267  Uiso   1.00
O2667  O     0.62031   0.14893   0.31301   0.01267  Uiso   1.00
O2668  O     0.66113   0.41167   0.31950   0.01267  Uiso   1.00
O2669  O     0.66335   0.28126   0.31366   0.01267  Uiso   1.00
O2670  O     0.66068   0.14952   0.31386   0.01267  Uiso   1.00
O2671  O     0.70106   0.32947   0.35516   0.01267  Uiso   1.00
O2672  O     0.70166   0.14318   0.35489   0.01267  Uiso   1.00
O2673  O     0.68671   0.53297   0.22673   0.01267  Uiso   1.00
O2674  O     0.63802   0.53056   0.22803   0.01267  Uiso   1.00
O2675  O     0.65457   0.53483   0.31211   0.01267  Uiso   1.00
O2676  O     0.62141   0.53464   0.30960   0.01267  Uiso   1.00
O2677  O     0.61327   0.03307   0.32711   0.01267  Uiso   1.00
O2678  O     0.66031   0.03147   0.33052   0.01267  Uiso   1.00
O2679  O     0.64491   0.03735   0.21008   0.01267  Uiso   1.00
O2680  O     0.67765   0.03542   0.20994   0.01267  Uiso   1.00
O2681  O     0.71330   0.03329   0.36819   0.01267  Uiso   1.00
O2682  O     0.76012   0.03549   0.36473   0.01267  Uiso   1.00
O2683  O     0.74459   0.03235   0.28530   0.01267  Uiso   1.00
O2684  O     0.77807   0.03363   0.28531   0.01267  Uiso   1.00
O2685  O     0.78653   0.53477   0.26797   0.01267  Uiso   1.00
O2686  O     0.73963   0.53603   0.26527   0.01267  Uiso   1.00
O2687  O     0.75523   0.53143   0.38424   0.01267  Uiso   1.00
O2688  O     0.72171   0.53284   0.38512   0.01267  Uiso   1.00
H2689  H     0.67836   0.61034   0.29640   0.01267  Uiso   1.00
H2690  H     0.71803   0.56025   0.28748   0.01267  Uiso   1.00
H2691  H     0.69611   0.60087   0.27473   0.01267  Uiso   1.00
H2692  H     0.67928   0.58796   0.33030   0.01267  Uiso   1.00
H2693  H     0.70054   0.54786   0.34554   0.01267  Uiso   1.00
H2694  H     0.72017   0.53368   0.32346   0.01267  Uiso   1.00
C2695  C     0.71084   0.55093   0.31750   0.01267  Uiso   1.00
C2696  C     0.70975   0.56565   0.29745   0.01267  Uiso   1.00
C2697  C     0.69783   0.58779   0.29009   0.01267  Uiso   1.00
C2698  C     0.68823   0.58054   0.32178   0.01267  Uiso   1.00
C2699  C     0.69996   0.55859   0.32983   0.01267  Uiso   1.00
N2700  N     0.68749   0.59435   0.30234   0.01267  Uiso   1.00
Si2701 Si    0.88561   0.84225   0.23009   0.01267  Uiso   1.00
Si2702 Si    0.86278   0.81360   0.26027   0.01267  Uiso   1.00
Si2703 Si    0.85583   0.84479   0.30339   0.01267  Uiso   1.00
Si2704 Si    0.82475   0.84618   0.30399   0.01267  Uiso   1.00
Si2705 Si    0.81407   0.81247   0.26182   0.01267  Uiso   1.00
Si2706 Si    0.83775   0.85034   0.23538   0.01267  Uiso   1.00
Si2707 Si    0.85332   0.61381   0.30670   0.01267  Uiso   1.00
Si2708 Si    0.82279   0.61254   0.30363   0.01267  Uiso   1.00
Si2709 Si    0.81342   0.65538   0.26086   0.01267  Uiso   1.00
Si2710 Si    0.83728   0.60581   0.23693   0.01267  Uiso   1.00
Si2711 Si    0.81616   0.72596   0.33282   0.01267  Uiso   1.00
Si2712 Si    0.83725   0.75636   0.36392   0.01267  Uiso   1.00
Si2713 Si    0.84379   0.72491   0.20809   0.01267  Uiso   1.00
Si2714 Si    0.87525   0.72020   0.20453   0.01267  Uiso   1.00
Si2715 Si    0.88454   0.75344   0.36158   0.01267  Uiso   1.00
Si2716 Si    0.86086   0.72720   0.33492   0.01267  Uiso   1.00
Si2717 Si    0.81539   0.95611   0.33338   0.01267  Uiso   1.00
Si2718 Si    0.83782   0.91458   0.36251   0.01267  Uiso   1.00
Si2719 Si    0.84574   0.95877   0.20524   0.01267  Uiso   1.00
Si2720 Si    0.87637   0.95824   0.20332   0.01267  Uiso   1.00
Si2721 Si    0.88589   0.91164   0.36112   0.01267  Uiso   1.00
Si2722 Si    0.86224   0.95289   0.33494   0.01267  Uiso   1.00
Si2723 Si    0.91519   0.33982   0.36571   0.01267  Uiso   1.00
Si2724 Si    0.93830   0.31154   0.33588   0.01267  Uiso   1.00
Si2725 Si    0.94378   0.34875   0.29231   0.01267  Uiso   1.00
Si2726 Si    0.97535   0.34962   0.29268   0.01267  Uiso   1.00
Si2727 Si    0.98542   0.31200   0.33485   0.01267  Uiso   1.00
Si2728 Si    0.96293   0.33679   0.36427   0.01267  Uiso   1.00
Si2729 Si    0.91525   0.11132   0.36325   0.01267  Uiso   1.00
Si2730 Si    0.93833   0.15455   0.33438   0.01267  Uiso   1.00
Si2731 Si    0.94591   0.10962   0.29171   0.01267  Uiso   1.00
Si2732 Si    0.97663   0.10913   0.29336   0.01267  Uiso   1.00
Si2733 Si    0.98622   0.15438   0.33533   0.01267  Uiso   1.00
Si2734 Si    0.96257   0.11429   0.36166   0.01267  Uiso   1.00
Si2735 Si    0.98502   0.22684   0.26654   0.01267  Uiso   1.00
Si2736 Si    0.96174   0.25522   0.23712   0.01267  Uiso   1.00
Si2737 Si    0.95600   0.21915   0.39322   0.01267  Uiso   1.00
Si2738 Si    0.92432   0.21829   0.39315   0.01267  Uiso   1.00
Si2739 Si    0.91441   0.25572   0.23571   0.01267  Uiso   1.00
Si2740 Si    0.93677   0.22759   0.26509   0.01267  Uiso   1.00
Si2741 Si    0.98450   0.45707   0.26266   0.01267  Uiso   1.00
Si2742 Si    0.96165   0.41398   0.23388   0.01267  Uiso   1.00
Si2743 Si    0.95388   0.45421   0.39068   0.01267  Uiso   1.00
Si2744 Si    0.92311   0.45652   0.39276   0.01267  Uiso   1.00
Si2745 Si    0.91366   0.41346   0.23542   0.01267  Uiso   1.00
Si2746 Si    0.93740   0.45749   0.26093   0.01267  Uiso   1.00
Si2747 Si    0.91403   0.72581   0.36664   0.01267  Uiso   1.00
Si2748 Si    0.93718   0.75373   0.33673   0.01267  Uiso   1.00
Si2749 Si    0.94407   0.72051   0.29376   0.01267  Uiso   1.00
Si2750 Si    0.97531   0.72011   0.29205   0.01267  Uiso   1.00
Si2751 Si    0.98627   0.75573   0.33380   0.01267  Uiso   1.00
Si2752 Si    0.96312   0.72372   0.36221   0.01267  Uiso   1.00
Si2753 Si    0.91522   0.95587   0.36240   0.01267  Uiso   1.00
Si2754 Si    0.93766   0.91329   0.33321   0.01267  Uiso   1.00
Si2755 Si    0.94614   0.95420   0.29068   0.01267  Uiso   1.00
Si2756 Si    0.97689   0.95655   0.29215   0.01267  Uiso   1.00
Si2757 Si    0.98641   0.91313   0.33451   0.01267  Uiso   1.00
Si2758 Si    0.96218   0.95772   0.35950   0.01267  Uiso   1.00
Si2759 Si    0.98425   0.84128   0.26354   0.01267  Uiso   1.00
Si2760 Si    0.96226   0.81123   0.23372   0.01267  Uiso   1.00
Si2761 Si    0.95608   0.84424   0.38947   0.01267  Uiso   1.00
Si2762 Si    0.92487   0.84689   0.39162   0.01267  Uiso   1.00
Si2763 Si    0.93824   0.83795   0.26343   0.01267  Uiso   1.00
Si2764 Si    0.98433   0.61201   0.26209   0.01267  Uiso   1.00
Si2765 Si    0.96208   0.65359   0.23289   0.01267  Uiso   1.00
Si2766 Si    0.95410   0.60952   0.38974   0.01267  Uiso   1.00
Si2767 Si    0.92355   0.60919   0.39246   0.01267  Uiso   1.00
Si2768 Si    0.93812   0.61528   0.26135   0.01267  Uiso   1.00
Si2769 Si    0.88470   0.22929   0.22975   0.01267  Uiso   1.00
Si2770 Si    0.86142   0.25959   0.25988   0.01267  Uiso   1.00
Si2771 Si    0.85630   0.21824   0.30313   0.01267  Uiso   1.00
Si2772 Si    0.82475   0.21795   0.30261   0.01267  Uiso   1.00
Si2773 Si    0.81461   0.25459   0.26060   0.01267  Uiso   1.00
Si2774 Si    0.83712   0.23048   0.23100   0.01267  Uiso   1.00
Si2775 Si    0.88454   0.45578   0.23236   0.01267  Uiso   1.00
Si2776 Si    0.85350   0.45921   0.30399   0.01267  Uiso   1.00
Si2777 Si    0.82292   0.45901   0.30175   0.01267  Uiso   1.00
Si2778 Si    0.81358   0.41176   0.25996   0.01267  Uiso   1.00
Si2779 Si    0.83687   0.45258   0.23284   0.01267  Uiso   1.00
Si2780 Si    0.81489   0.34132   0.32827   0.01267  Uiso   1.00
Si2781 Si    0.83816   0.31292   0.35752   0.01267  Uiso   1.00
Si2782 Si    0.84397   0.34608   0.20155   0.01267  Uiso   1.00
Si2783 Si    0.87565   0.34841   0.20181   0.01267  Uiso   1.00
Si2784 Si    0.88566   0.31349   0.35932   0.01267  Uiso   1.00
Si2785 Si    0.86326   0.34015   0.32998   0.01267  Uiso   1.00
Si2786 Si    0.81536   0.11047   0.33276   0.01267  Uiso   1.00
Si2787 Si    0.83812   0.15440   0.36122   0.01267  Uiso   1.00
Si2788 Si    0.84602   0.11509   0.20448   0.01267  Uiso   1.00
Si2789 Si    0.87662   0.11234   0.20309   0.01267  Uiso   1.00
Si2790 Si    0.88628   0.15524   0.36035   0.01267  Uiso   1.00
Si2791 Si    0.86256   0.10986   0.33460   0.01267  Uiso   1.00
Si2792 Si    0.91557   0.81298   0.23426   0.01267  Uiso   1.00
Si2793 Si    0.91464   0.65490   0.23477   0.01267  Uiso   1.00
Si2794 Si    0.88492   0.60995   0.23394   0.01267  Uiso   1.00
Si2795 Si    0.86110   0.41691   0.26129   0.01267  Uiso   1.00
Al2796 Al    0.86188   0.65046   0.26330   0.01267  Uiso   1.00
O2797  O     0.87568   0.84207   0.24861   0.01267  Uiso   1.00
O2798  O     0.86408   0.83937   0.28312   0.01267  Uiso   1.00
O2799  O     0.84020   0.84616   0.29845   0.01267  Uiso   1.00
O2800  O     0.81593   0.83841   0.28432   0.01267  Uiso   1.00
O2801  O     0.82378   0.85166   0.24697   0.01267  Uiso   1.00
O2802  O     0.84980   0.84927   0.25087   0.01267  Uiso   1.00
O2803  O     0.87596   0.61481   0.25315   0.01267  Uiso   1.00
O2804  O     0.86328   0.63255   0.28899   0.01267  Uiso   1.00
O2805  O     0.83821   0.63325   0.30155   0.01267  Uiso   1.00
O2806  O     0.81542   0.62562   0.28292   0.01267  Uiso   1.00
O2807  O     0.82216   0.61659   0.24471   0.01267  Uiso   1.00
O2808  O     0.84751   0.61507   0.25451   0.01267  Uiso   1.00
O2809  O     0.86188   0.73502   0.25882   0.01267  Uiso   1.00
O2810  O     0.81719   0.73364   0.26075   0.01267  Uiso   1.00
O2811  O     0.88473   0.91280   0.21843   0.01267  Uiso   1.00
O2812  O     0.88288   0.78221   0.21461   0.01267  Uiso   1.00
O2813  O     0.87939   0.65082   0.21488   0.01267  Uiso   1.00
O2814  O     0.83838   0.91857   0.22261   0.01267  Uiso   1.00
O2815  O     0.83810   0.78664   0.22078   0.01267  Uiso   1.00
O2816  O     0.83988   0.65518   0.21820   0.01267  Uiso   1.00
O2817  O     0.99895   0.82722   0.25552   0.01267  Uiso   1.00
O2818  O     0.99797   0.64633   0.25521   0.01267  Uiso   1.00
O2819  O     0.82556   0.71887   0.35202   0.01267  Uiso   1.00
O2820  O     0.83734   0.72780   0.38616   0.01267  Uiso   1.00
O2821  O     0.85961   0.73234   0.20610   0.01267  Uiso   1.00
O2822  O     0.87963   0.71593   0.38143   0.01267  Uiso   1.00
O2823  O     0.87601   0.72869   0.34268   0.01267  Uiso   1.00
O2824  O     0.85139   0.74236   0.35356   0.01267  Uiso   1.00
O2825  O     0.82602   0.95211   0.35107   0.01267  Uiso   1.00
O2826  O     0.83842   0.94513   0.38447   0.01267  Uiso   1.00
O2827  O     0.86103   0.93507   0.20364   0.01267  Uiso   1.00
O2828  O     0.88220   0.95145   0.38112   0.01267  Uiso   1.00
O2829  O     0.87706   0.93936   0.34299   0.01267  Uiso   1.00
O2830  O     0.85179   0.92743   0.35147   0.01267  Uiso   1.00
O2831  O     0.83463   0.83589   0.36351   0.01267  Uiso   1.00
O2832  O     0.88314   0.83306   0.36445   0.01267  Uiso   1.00
O2833  O     0.81592   0.65609   0.32092   0.01267  Uiso   1.00
O2834  O     0.82177   0.78484   0.31883   0.01267  Uiso   1.00
O2835  O     0.82075   0.91604   0.31426   0.01267  Uiso   1.00
O2836  O     0.85801   0.65269   0.32668   0.01267  Uiso   1.00
O2837  O     0.85889   0.78135   0.31755   0.01267  Uiso   1.00
O2838  O     0.86003   0.91306   0.31450   0.01267  Uiso   1.00
O2839  O     0.89966   0.73304   0.35658   0.01267  Uiso   1.00
O2840  O     0.90128   0.92362   0.35570   0.01267  Uiso   1.00
O2841  O     0.92644   0.34312   0.34879   0.01267  Uiso   1.00
O2842  O     0.93903   0.35220   0.31517   0.01267  Uiso   1.00
O2843  O     0.95958   0.33962   0.29095   0.01267  Uiso   1.00
O2844  O     0.97982   0.35087   0.31557   0.01267  Uiso   1.00
O2845  O     0.97737   0.33585   0.35425   0.01267  Uiso   1.00
O2846  O     0.95209   0.31933   0.34752   0.01267  Uiso   1.00
O2847  O     0.92649   0.12021   0.34655   0.01267  Uiso   1.00
O2848  O     0.93883   0.11954   0.31294   0.01267  Uiso   1.00
O2849  O     0.96126   0.13171   0.29339   0.01267  Uiso   1.00
O2850  O     0.98232   0.11284   0.31566   0.01267  Uiso   1.00
O2851  O     0.97740   0.12841   0.35378   0.01267  Uiso   1.00
O2852  O     0.95225   0.14438   0.34566   0.01267  Uiso   1.00
O2853  O     0.93551   0.23348   0.33177   0.01267  Uiso   1.00
O2854  O     0.98352   0.23273   0.33135   0.01267  Uiso   1.00
O2855  O     0.91502   0.41015   0.37746   0.01267  Uiso   1.00
O2856  O     0.91776   0.27968   0.38114   0.01267  Uiso   1.00
O2857  O     0.91978   0.14838   0.38345   0.01267  Uiso   1.00
O2858  O     0.96032   0.41021   0.37321   0.01267  Uiso   1.00
O2859  O     0.96246   0.28235   0.38192   0.01267  Uiso   1.00
O2860  O     0.96050   0.15012   0.38290   0.01267  Uiso   1.00
O2861  O     0.80072   0.33011   0.33871   0.01267  Uiso   1.00
O2862  O     0.80159   0.14229   0.34054   0.01267  Uiso   1.00
O2863  O     0.97397   0.22459   0.24934   0.01267  Uiso   1.00
O2864  O     0.96100   0.21841   0.21589   0.01267  Uiso   1.00
O2865  O     0.94013   0.22621   0.39221   0.01267  Uiso   1.00
O2866  O     0.91935   0.21892   0.21576   0.01267  Uiso   1.00
O2867  O     0.92256   0.22717   0.25440   0.01267  Uiso   1.00
O2868  O     0.94811   0.24252   0.24887   0.01267  Uiso   1.00
O2869  O     0.97359   0.45009   0.24532   0.01267  Uiso   1.00
O2870  O     0.96144   0.44091   0.21136   0.01267  Uiso   1.00
O2871  O     0.93846   0.43394   0.39315   0.01267  Uiso   1.00
O2872  O     0.91704   0.45039   0.21474   0.01267  Uiso   1.00
O2873  O     0.92247   0.44599   0.25302   0.01267  Uiso   1.00
O2874  O     0.94767   0.43158   0.24433   0.01267  Uiso   1.00
O2875  O     0.96385   0.33442   0.23412   0.01267  Uiso   1.00
O2876  O     0.91702   0.33506   0.23340   0.01267  Uiso   1.00
O2877  O     0.98481   0.15787   0.27889   0.01267  Uiso   1.00
O2878  O     0.98252   0.28864   0.28144   0.01267  Uiso   1.00
O2879  O     0.97949   0.41968   0.28260   0.01267  Uiso   1.00
O2880  O     0.93886   0.15540   0.27517   0.01267  Uiso   1.00
O2881  O     0.93683   0.28555   0.28179   0.01267  Uiso   1.00
O2882  O     0.93944   0.41786   0.28163   0.01267  Uiso   1.00
O2883  O     0.89902   0.24052   0.23968   0.01267  Uiso   1.00
O2884  O     0.89827   0.42423   0.24071   0.01267  Uiso   1.00
O2885  O     0.92502   0.72359   0.34934   0.01267  Uiso   1.00
O2886  O     0.93663   0.71987   0.31497   0.01267  Uiso   1.00
O2887  O     0.95978   0.72517   0.29735   0.01267  Uiso   1.00
O2888  O     0.98380   0.72323   0.31220   0.01267  Uiso   1.00
O2889  O     0.97680   0.72140   0.35008   0.01267  Uiso   1.00
O2890  O     0.95099   0.73498   0.34709   0.01267  Uiso   1.00
O2891  O     0.92551   0.94999   0.34416   0.01267  Uiso   1.00
O2892  O     0.93766   0.93537   0.31022   0.01267  Uiso   1.00
O2893  O     0.96150   0.93559   0.29460   0.01267  Uiso   1.00
O2894  O     0.98421   0.94762   0.31316   0.01267  Uiso   1.00
O2895  O     0.97691   0.94675   0.35094   0.01267  Uiso   1.00
O2896  O     0.95159   0.93487   0.34291   0.01267  Uiso   1.00
O2897  O     0.93574   0.83363   0.33513   0.01267  Uiso   1.00
O2898  O     0.98304   0.83463   0.33288   0.01267  Uiso   1.00
O2899  O     0.91433   0.65600   0.37878   0.01267  Uiso   1.00
O2900  O     0.91637   0.78737   0.38167   0.01267  Uiso   1.00
O2901  O     0.92092   0.91748   0.38172   0.01267  Uiso   1.00
O2902  O     0.96173   0.65241   0.37315   0.01267  Uiso   1.00
O2903  O     0.96354   0.78351   0.37833   0.01267  Uiso   1.00
O2904  O     0.96005   0.91483   0.37956   0.01267  Uiso   1.00
O2905  O     0.80138   0.74324   0.34019   0.01267  Uiso   1.00
O2906  O     0.80158   0.92438   0.34110   0.01267  Uiso   1.00
O2907  O     0.97457   0.84670   0.24457   0.01267  Uiso   1.00
O2908  O     0.96045   0.84616   0.21239   0.01267  Uiso   1.00
O2909  O     0.94032   0.83186   0.38769   0.01267  Uiso   1.00
O2910  O     0.92170   0.85033   0.21500   0.01267  Uiso   1.00
O2911  O     0.92374   0.83465   0.25374   0.01267  Uiso   1.00
O2912  O     0.94900   0.82034   0.24663   0.01267  Uiso   1.00
O2913  O     0.97406   0.61622   0.24383   0.01267  Uiso   1.00
O2914  O     0.96059   0.62156   0.21120   0.01267  Uiso   1.00
O2915  O     0.93875   0.63267   0.38997   0.01267  Uiso   1.00
O2916  O     0.91943   0.61365   0.21549   0.01267  Uiso   1.00
O2917  O     0.92328   0.63111   0.25378   0.01267  Uiso   1.00
O2918  O     0.94848   0.64207   0.24507   0.01267  Uiso   1.00
O2919  O     0.96507   0.73232   0.23113   0.01267  Uiso   1.00
O2920  O     0.91686   0.73334   0.23064   0.01267  Uiso   1.00
O2921  O     0.98393   0.91087   0.27559   0.01267  Uiso   1.00
O2922  O     0.97925   0.78135   0.27774   0.01267  Uiso   1.00
O2923  O     0.97822   0.64987   0.28123   0.01267  Uiso   1.00
O2924  O     0.94070   0.91203   0.27203   0.01267  Uiso   1.00
O2925  O     0.93910   0.78430   0.28128   0.01267  Uiso   1.00
O2926  O     0.94037   0.65177   0.28244   0.01267  Uiso   1.00
O2927  O     0.90054   0.83442   0.23818   0.01267  Uiso   1.00
O2928  O     0.89951   0.63868   0.23983   0.01267  Uiso   1.00
O2929  O     0.87376   0.23337   0.24700   0.01267  Uiso   1.00
O2930  O     0.86080   0.21641   0.28015   0.01267  Uiso   1.00
O2931  O     0.84049   0.22745   0.30473   0.01267  Uiso   1.00
O2932  O     0.82045   0.21506   0.27961   0.01267  Uiso   1.00
O2933  O     0.82267   0.23339   0.24098   0.01267  Uiso   1.00
O2934  O     0.84792   0.24988   0.24759   0.01267  Uiso   1.00
O2935  O     0.87360   0.44695   0.24951   0.01267  Uiso   1.00
O2936  O     0.86043   0.45456   0.28244   0.01267  Uiso   1.00
O2937  O     0.83824   0.43554   0.30246   0.01267  Uiso   1.00
O2938  O     0.81766   0.45520   0.27919   0.01267  Uiso   1.00
O2939  O     0.82228   0.43391   0.24107   0.01267  Uiso   1.00
O2940  O     0.84758   0.42840   0.24920   0.01267  Uiso   1.00
O2941  O     0.86321   0.33781   0.26505   0.01267  Uiso   1.00
O2942  O     0.81595   0.33371   0.26482   0.01267  Uiso   1.00
O2943  O     0.88434   0.15683   0.21931   0.01267  Uiso   1.00
O2944  O     0.88236   0.28576   0.21299   0.01267  Uiso   1.00
O2945  O     0.87996   0.41708   0.21246   0.01267  Uiso   1.00
O2946  O     0.83963   0.15614   0.22266   0.01267  Uiso   1.00
O2947  O     0.83772   0.28201   0.21263   0.01267  Uiso   1.00
O2948  O     0.83938   0.41390   0.21219   0.01267  Uiso   1.00
O2949  O     0.99939   0.23485   0.25660   0.01267  Uiso   1.00
O2950  O     0.99816   0.42453   0.25491   0.01267  Uiso   1.00
O2951  O     0.82617   0.34559   0.34509   0.01267  Uiso   1.00
O2952  O     0.83875   0.34782   0.37900   0.01267  Uiso   1.00
O2953  O     0.85987   0.33971   0.20217   0.01267  Uiso   1.00
O2954  O     0.88092   0.35101   0.37927   0.01267  Uiso   1.00
O2955  O     0.87750   0.34243   0.34069   0.01267  Uiso   1.00
O2956  O     0.85199   0.32609   0.34634   0.01267  Uiso   1.00
O2957  O     0.82616   0.11649   0.35024   0.01267  Uiso   1.00
O2958  O     0.83828   0.13126   0.38410   0.01267  Uiso   1.00
O2959  O     0.86137   0.13647   0.20178   0.01267  Uiso   1.00
O2960  O     0.88329   0.12100   0.38152   0.01267  Uiso   1.00
O2961  O     0.87729   0.12219   0.34317   0.01267  Uiso   1.00
O2962  O     0.85208   0.13608   0.35095   0.01267  Uiso   1.00
O2963  O     0.83569   0.23376   0.35968   0.01267  Uiso   1.00
O2964  O     0.88322   0.23424   0.36163   0.01267  Uiso   1.00
O2965  O     0.81439   0.41036   0.31590   0.01267  Uiso   1.00
O2966  O     0.81754   0.28017   0.31320   0.01267  Uiso   1.00
O2967  O     0.82031   0.14893   0.31301   0.01267  Uiso   1.00
O2968  O     0.86113   0.41167   0.31950   0.01267  Uiso   1.00
O2969  O     0.86335   0.28126   0.31366   0.01267  Uiso   1.00
O2970  O     0.86068   0.14952   0.31386   0.01267  Uiso   1.00
O2971  O     0.90106   0.32947   0.35516   0.01267  Uiso   1.00
O2972  O     0.90166   0.14318   0.35489   0.01267  Uiso   1.00
O2973  O     0.88671   0.53297   0.22673   0.01267  Uiso   1.00
O2974  O     0.83802   0.53056   0.22803   0.01267  Uiso   1.00
O2975  O     0.85457   0.53483   0.31211   0.01267  Uiso   1.00
O2976  O     0.82141   0.53464   0.30960   0.01267  Uiso   1.00
O2977  O     0.81327   0.03307   0.32711   0.01267  Uiso   1.00
O2978  O     0.86031   0.03147   0.33052   0.01267  Uiso   1.00
O2979  O     0.84491   0.03735   0.21008   0.01267  Uiso   1.00
O2980  O     0.87765   0.03542   0.20994   0.01267  Uiso   1.00
O2981  O     0.91330   0.03329   0.36819   0.01267  Uiso   1.00
O2982  O     0.96012   0.03549   0.36473   0.01267  Uiso   1.00
O2983  O     0.94459   0.03235   0.28530   0.01267  Uiso   1.00
O2984  O     0.97807   0.03363   0.28531   0.01267  Uiso   1.00
O2985  O     0.98653   0.53477   0.26797   0.01267  Uiso   1.00
O2986  O     0.93963   0.53603   0.26527   0.01267  Uiso   1.00
O2987  O     0.95523   0.53143   0.38424   0.01267  Uiso   1.00
O2988  O     0.92171   0.53284   0.38512   0.01267  Uiso   1.00
H2989  H     0.87836   0.61034   0.29640   0.01267  Uiso   1.00
H2990  H     0.91803   0.56025   0.28748   0.01267  Uiso   1.00
H2991  H     0.89611   0.60087   0.27473   0.01267  Uiso   1.00
H2992  H     0.87928   0.58796   0.33030   0.01267  Uiso   1.00
H2993  H     0.90054   0.54786   0.34554   0.01267  Uiso   1.00
H2994  H     0.92017   0.53368   0.32346   0.01267  Uiso   1.00
C2995  C     0.91084   0.55093   0.31750   0.01267  Uiso   1.00
C2996  C     0.90975   0.56565   0.29745   0.01267  Uiso   1.00
C2997  C     0.89783   0.58779   0.29009   0.01267  Uiso   1.00
C2998  C     0.88823   0.58054   0.32178   0.01267  Uiso   1.00
C2999  C     0.89996   0.55859   0.32983   0.01267  Uiso   1.00
N3000  N     0.88749   0.59435   0.30234   0.01267  Uiso   1.00
Si3001 Si    0.08561   0.84225   0.43009   0.01267  Uiso   1.00
Si3002 Si    0.06278   0.81360   0.46027   0.01267  Uiso   1.00
Si3003 Si    0.05583   0.84479   0.50339   0.01267  Uiso   1.00
Si3004 Si    0.02475   0.84618   0.50399   0.01267  Uiso   1.00
Si3005 Si    0.01407   0.81247   0.46182   0.01267  Uiso   1.00
Si3006 Si    0.03775   0.85034   0.43538   0.01267  Uiso   1.00
Si3007 Si    0.05332   0.61381   0.50670   0.01267  Uiso   1.00
Si3008 Si    0.02279   0.61254   0.50363   0.01267  Uiso   1.00
Si3009 Si    0.01342   0.65538   0.46086   0.01267  Uiso   1.00
Si3010 Si    0.03728   0.60581   0.43693   0.01267  Uiso   1.00
Si3011 Si    0.01616   0.72596   0.53282   0.01267  Uiso   1.00
Si3012 Si    0.03725   0.75636   0.56392   0.01267  Uiso   1.00
Si3013 Si    0.04379   0.72491   0.40809   0.01267  Uiso   1.00
Si3014 Si    0.07525   0.72020   0.40453   0.01267  Uiso   1.00
Si3015 Si    0.08454   0.75344   0.56158   0.01267  Uiso   1.00
Si3016 Si    0.06086   0.72720   0.53492   0.01267  Uiso   1.00
Si3017 Si    0.01539   0.95611   0.53338   0.01267  Uiso   1.00
Si3018 Si    0.03782   0.91458   0.56251   0.01267  Uiso   1.00
Si3019 Si    0.04574   0.95877   0.40524   0.01267  Uiso   1.00
Si3020 Si    0.07637   0.95824   0.40332   0.01267  Uiso   1.00
Si3021 Si    0.08589   0.91164   0.56112   0.01267  Uiso   1.00
Si3022 Si    0.06224   0.95289   0.53494   0.01267  Uiso   1.00
Si3023 Si    0.11519   0.33982   0.56571   0.01267  Uiso   1.00
Si3024 Si    0.13830   0.31154   0.53588   0.01267  Uiso   1.00
Si3025 Si    0.14378   0.34875   0.49231   0.01267  Uiso   1.00
Si3026 Si    0.17535   0.34962   0.49268   0.01267  Uiso   1.00
Si3027 Si    0.18542   0.31200   0.53485   0.01267  Uiso   1.00
Si3028 Si    0.16293   0.33679   0.56427   0.01267  Uiso   1.00
Si3029 Si    0.11525   0.11132   0.56325   0.01267  Uiso   1.00
Si3030 Si    0.13833   0.15455   0.53438   0.01267  Uiso   1.00
Si3031 Si    0.14591   0.10962   0.49171   0.01267  Uiso   1.00
Si3032 Si    0.17663   0.10913   0.49336   0.01267  Uiso   1.00
Si3033 Si    0.18622   0.15438   0.53533   0.01267  Uiso   1.00
Si3034 Si    0.16257   0.11429   0.56166   0.01267  Uiso   1.00
Si3035 Si    0.18502   0.22684   0.46654   0.01267  Uiso   1.00
Si3036 Si    0.16174   0.25522   0.43712   0.01267  Uiso   1.00
Si3037 Si    0.15600   0.21915   0.59322   0.01267  Uiso   1.00
Si3038 Si    0.12432   0.21829   0.59315   0.01267  Uiso   1.00
Si3039 Si    0.11441   0.25572   0.43571   0.01267  Uiso   1.00
Si3040 Si    0.13677   0.22759   0.46509   0.01267  Uiso   1.00
Si3041 Si    0.18450   0.45707   0.46266   0.01267  Uiso   1.00
Si3042 Si    0.16165   0.41398   0.43388   0.01267  Uiso   1.00
Si3043 Si    0.15388   0.45421   0.59068   0.01267  Uiso   1.00
Si3044 Si    0.12311   0.45652   0.59276   0.01267  Uiso   1.00
Si3045 Si    0.11366   0.41346   0.43542   0.01267  Uiso   1.00
Si3046 Si    0.13740   0.45749   0.46093   0.01267  Uiso   1.00
Si3047 Si    0.11403   0.72581   0.56664   0.01267  Uiso   1.00
Si3048 Si    0.13718   0.75373   0.53673   0.01267  Uiso   1.00
Si3049 Si    0.14407   0.72051   0.49376   0.01267  Uiso   1.00
Si3050 Si    0.17531   0.72011   0.49205   0.01267  Uiso   1.00
Si3051 Si    0.18627   0.75573   0.53380   0.01267  Uiso   1.00
Si3052 Si    0.16312   0.72372   0.56221   0.01267  Uiso   1.00
Si3053 Si    0.11522   0.95587   0.56240   0.01267  Uiso   1.00
Si3054 Si    0.13766   0.91329   0.53321   0.01267  Uiso   1.00
Si3055 Si    0.14614   0.95420   0.49068   0.01267  Uiso   1.00
Si3056 Si    0.17689   0.95655   0.49215   0.01267  Uiso   1.00
Si3057 Si    0.18641   0.91313   0.53451   0.01267  Uiso   1.00
Si3058 Si    0.16218   0.95772   0.55950   0.01267  Uiso   1.00
Si3059 Si    0.18425   0.84128   0.46354   0.01267  Uiso   1.00
Si3060 Si    0.16226   0.81123   0.43372   0.01267  Uiso   1.00
Si3061 Si    0.15608   0.84424   0.58947   0.01267  Uiso   1.00
Si3062 Si    0.12487   0.84689   0.59162   0.01267  Uiso   1.00
Si3063 Si    0.13824   0.83795   0.46343   0.01267  Uiso   1.00
Si3064 Si    0.18433   0.61201   0.46209   0.01267  Uiso   1.00
Si3065 Si    0.16208   0.65359   0.43289   0.01267  Uiso   1.00
Si3066 Si    0.15410   0.60952   0.58974   0.01267  Uiso   1.00
Si3067 Si    0.12355   0.60919   0.59246   0.01267  Uiso   1.00
Si3068 Si    0.13812   0.61528   0.46135   0.01267  Uiso   1.00
Si3069 Si    0.08470   0.22929   0.42975   0.01267  Uiso   1.00
Si3070 Si    0.06142   0.25959   0.45988   0.01267  Uiso   1.00
Si3071 Si    0.05630   0.21824   0.50313   0.01267  Uiso   1.00
Si3072 Si    0.02475   0.21795   0.50261   0.01267  Uiso   1.00
Si3073 Si    0.01461   0.25459   0.46060   0.01267  Uiso   1.00
Si3074 Si    0.03712   0.23048   0.43100   0.01267  Uiso   1.00
Si3075 Si    0.08454   0.45578   0.43236   0.01267  Uiso   1.00
Si3076 Si    0.05350   0.45921   0.50399   0.01267  Uiso   1.00
Si3077 Si    0.02292   0.45901   0.50175   0.01267  Uiso   1.00
Si3078 Si    0.01358   0.41176   0.45996   0.01267  Uiso   1.00
Si3079 Si    0.03687   0.45258   0.43284   0.01267  Uiso   1.00
Si3080 Si    0.01489   0.34132   0.52827   0.01267  Uiso   1.00
Si3081 Si    0.03816   0.31292   0.55752   0.01267  Uiso   1.00
Si3082 Si    0.04397   0.34608   0.40155   0.01267  Uiso   1.00
Si3083 Si    0.07565   0.34841   0.40181   0.01267  Uiso   1.00
Si3084 Si    0.08566   0.31349   0.55932   0.01267  Uiso   1.00
Si3085 Si    0.06326   0.34015   0.52998   0.01267  Uiso   1.00
Si3086 Si    0.01536   0.11047   0.53276   0.01267  Uiso   1.00
Si3087 Si    0.03812   0.15440   0.56122   0.01267  Uiso   1.00
Si3088 Si    0.04602   0.11509   0.40448   0.01267  Uiso   1.00
Si3089 Si    0.07662   0.11234   0.40309   0.01267  Uiso   1.00
Si3090 Si    0.08628   0.15524   0.56035   0.01267  Uiso   1.00
Si3091 Si    0.06256   0.10986   0.53460   0.01267  Uiso   1.00
Si3092 Si    0.11557   0.81298   0.43426   0.01267  Uiso   1.00
Si3093 Si    0.11464   0.65490   0.43477   0.01267  Uiso   1.00
Si3094 Si    0.08492   0.60995   0.43394   0.01267  Uiso   1.00
Si3095 Si    0.06110   0.41691   0.46129   0.01267  Uiso   1.00
Al3096 Al    0.06188   0.65046   0.46330   0.01267  Uiso   1.00
O3097  O     0.07568   0.84207   0.44861   0.01267  Uiso   1.00
O3098  O     0.06408   0.83937   0.48312   0.01267  Uiso   1.00
O3099  O     0.04020   0.84616   0.49845   0.01267  Uiso   1.00
O3100  O     0.01593   0.83841   0.48432   0.01267  Uiso   1.00
O3101  O     0.02378   0.85166   0.44697   0.01267  Uiso   1.00
O3102  O     0.04980   0.84927   0.45087   0.01267  Uiso   1.00
O3103  O     0.07596   0.61481   0.45315   0.01267  Uiso   1.00
O3104  O     0.06328   0.63255   0.48899   0.01267  Uiso   1.00
O3105  O     0.03821   0.63325   0.50155   0.01267  Uiso   1.00
O3106  O     0.01542   0.62562   0.48292   0.01267  Uiso   1.00
O3107  O     0.02216   0.61659   0.44471   0.01267  Uiso   1.00
O3108  O     0.04751   0.61507   0.45451   0.01267  Uiso   1.00
O3109  O     0.06188   0.73502   0.45882   0.01267  Uiso   1.00
O3110  O     0.01719   0.73364   0.46075   0.01267  Uiso   1.00
O3111  O     0.08473   0.91280   0.41843   0.01267  Uiso   1.00
O3112  O     0.08288   0.78221   0.41461   0.01267  Uiso   1.00
O3113  O     0.07939   0.65082   0.41488   0.01267  Uiso   1.00
O3114  O     0.03838   0.91857   0.42261   0.01267  Uiso   1.00
O3115  O     0.03810   0.78664   0.42078   0.01267  Uiso   1.00
O3116  O     0.03987   0.65518   0.41820   0.01267  Uiso   1.00
O3117  O     0.19895   0.82722   0.45552   0.01267  Uiso   1.00
O3118  O     0.19797   0.64633   0.45521   0.01267  Uiso   1.00
O3119  O     0.02556   0.71887   0.55202   0.01267  Uiso   1.00
O3120  O     0.03734   0.72780   0.58616   0.01267  Uiso   1.00
O3121  O     0.05961   0.73234   0.40610   0.01267  Uiso   1.00
O3122  O     0.07963   0.71593   0.58143   0.01267  Uiso   1.00
O3123  O     0.07601   0.72869   0.54268   0.01267  Uiso   1.00
O3124  O     0.05139   0.74236   0.55356   0.01267  Uiso   1.00
O3125  O     0.02602   0.95211   0.55107   0.01267  Uiso   1.00
O3126  O     0.03842   0.94513   0.58447   0.01267  Uiso   1.00
O3127  O     0.06103   0.93507   0.40364   0.01267  Uiso   1.00
O3128  O     0.08220   0.95145   0.58112   0.01267  Uiso   1.00
O3129  O     0.07706   0.93936   0.54299   0.01267  Uiso   1.00
O3130  O     0.05179   0.92743   0.55147   0.01267  Uiso   1.00
O3131  O     0.03463   0.83589   0.56351   0.01267  Uiso   1.00
O3132  O     0.08314   0.83306   0.56445   0.01267  Uiso   1.00
O3133  O     0.01592   0.65609   0.52092   0.01267  Uiso   1.00
O3134  O     0.02177   0.78484   0.51883   0.01267  Uiso   1.00
O3135  O     0.02075   0.91604   0.51426   0.01267  Uiso   1.00
O3136  O     0.05801   0.65269   0.52668   0.01267  Uiso   1.00
O3137  O     0.05889   0.78135   0.51755   0.01267  Uiso   1.00
O3138  O     0.06003   0.91306   0.51450   0.01267  Uiso   1.00
O3139  O     0.09966   0.73304   0.55658   0.01267  Uiso   1.00
O3140  O     0.10128   0.92362   0.55570   0.01267  Uiso   1.00
O3141  O     0.12644   0.34312   0.54879   0.01267  Uiso   1.00
O3142  O     0.13903   0.35220   0.51517   0.01267  Uiso   1.00
O3143  O     0.15958   0.33962   0.49095   0.01267  Uiso   1.00
O3144  O     0.17982   0.35087   0.51557   0.01267  Uiso   1.00
O3145  O     0.17737   0.33585   0.55425   0.01267  Uiso   1.00
O3146  O     0.15209   0.31933   0.54752   0.01267  Uiso   1.00
O3147  O     0.12649   0.12021   0.54655   0.01267  Uiso   1.00
O3148  O     0.13883   0.11954   0.51294   0.01267  Uiso   1.00
O3149  O     0.16126   0.13171   0.49339   0.01267  Uiso   1.00
O3150  O     0.18232   0.11284   0.51566   0.01267  Uiso   1.00
O3151  O     0.17740   0.12841   0.55378   0.01267  Uiso   1.00
O3152  O     0.15225   0.14438   0.54566   0.01267  Uiso   1.00
O3153  O     0.13551   0.23348   0.53177   0.01267  Uiso   1.00
O3154  O     0.18352   0.23273   0.53135   0.01267  Uiso   1.00
O3155  O     0.11502   0.41015   0.57746   0.01267  Uiso   1.00
O3156  O     0.11776   0.27968   0.58114   0.01267  Uiso   1.00
O3157  O     0.11978   0.14838   0.58345   0.01267  Uiso   1.00
O3158  O     0.16032   0.41021   0.57321   0.01267  Uiso   1.00
O3159  O     0.16246   0.28235   0.58192   0.01267  Uiso   1.00
O3160  O     0.16050   0.15012   0.58290   0.01267  Uiso   1.00
O3161  O     0.00072   0.33011   0.53871   0.01267  Uiso   1.00
O3162  O     0.00159   0.14229   0.54054   0.01267  Uiso   1.00
O3163  O     0.17397   0.22459   0.44934   0.01267  Uiso   1.00
O3164  O     0.16100   0.21841   0.41589   0.01267  Uiso   1.00
O3165  O     0.14013   0.22621   0.59221   0.01267  Uiso   1.00
O3166  O     0.11935   0.21892   0.41576   0.01267  Uiso   1.00
O3167  O     0.12256   0.22717   0.45440   0.01267  Uiso   1.00
O3168  O     0.14811   0.24252   0.44887   0.01267  Uiso   1.00
O3169  O     0.17359   0.45009   0.44532   0.01267  Uiso   1.00
O3170  O     0.16144   0.44091   0.41136   0.01267  Uiso   1.00
O3171  O     0.13846   0.43394   0.59315   0.01267  Uiso   1.00
O3172  O     0.11704   0.45039   0.41474   0.01267  Uiso   1.00
O3173  O     0.12247   0.44599   0.45302   0.01267  Uiso   1.00
O3174  O     0.14767   0.43158   0.44433   0.01267  Uiso   1.00
O3175  O     0.16385   0.33442   0.43412   0.01267  Uiso   1.00
O3176  O     0.11702   0.33506   0.43340   0.01267  Uiso   1.00
O3177  O     0.18481   0.15787   0.47889   0.01267  Uiso   1.00
O3178  O     0.18252   0.28864   0.48144   0.01267  Uiso   1.00
O3179  O     0.17949   0.41968   0.48260   0.01267  Uiso   1.00
O3180  O     0.13886   0.15540   0.47517   0.01267  Uiso   1.00
O3181  O     0.13683   0.28555   0.48179   0.01267  Uiso   1.00
O3182  O     0.13944   0.41786   0.48163   0.01267  Uiso   1.00
O3183  O     0.09902   0.24052   0.43968   0.01267  Uiso   1.00
O3184  O     0.09827   0.42423   0.44071   0.01267  Uiso   1.00
O3185  O     0.12502   0.72359   0.54934   0.01267  Uiso   1.00
O3186  O     0.13663   0.71987   0.51497   0.01267  Uiso   1.00
O3187  O     0.15978   0.72517   0.49735   0.01267  Uiso   1.00
O3188  O     0.18380   0.72323   0.51220   0.01267  Uiso   1.00
O3189  O     0.17680   0.72140   0.55008   0.01267  Uiso   1.00
O3190  O     0.15099   0.73498   0.54709   0.01267  Uiso   1.00
O3191  O     0.12551   0.94999   0.54416   0.01267  Uiso   1.00
O3192  O     0.13766   0.93537   0.51022   0.01267  Uiso   1.00
O3193  O     0.16150   0.93559   0.49460   0.01267  Uiso   1.00
O3194  O     0.18421   0.94762   0.51316   0.01267  Uiso   1.00
O3195  O     0.17691   0.94675   0.55094   0.01267  Uiso   1.00
O3196  O     0.15159   0.93487   0.54291   0.01267  Uiso   1.00
O3197  O     0.13574   0.83363   0.53513   0.01267  Uiso   1.00
O3198  O     0.18304   0.83463   0.53288   0.01267  Uiso   1.00
O3199  O     0.11433   0.65600   0.57878   0.01267  Uiso   1.00
O3200  O     0.11637   0.78737   0.58167   0.01267  Uiso   1.00
O3201  O     0.12092   0.91748   0.58172   0.01267  Uiso   1.00
O3202  O     0.16173   0.65241   0.57315   0.01267  Uiso   1.00
O3203  O     0.16354   0.78351   0.57833   0.01267  Uiso   1.00
O3204  O     0.16005   0.91483   0.57956   0.01267  Uiso   1.00
O3205  O     0.00138   0.74324   0.54019   0.01267  Uiso   1.00
O3206  O     0.00158   0.92438   0.54110   0.01267  Uiso   1.00
O3207  O     0.17457   0.84670   0.44457   0.01267  Uiso   1.00
O3208  O     0.16045   0.84616   0.41239   0.01267  Uiso   1.00
O3209  O     0.14032   0.83186   0.58769   0.01267  Uiso   1.00
O3210  O     0.12170   0.85033   0.41500   0.01267  Uiso   1.00
O3211  O     0.12374   0.83465   0.45374   0.01267  Uiso   1.00
O3212  O     0.14900   0.82034   0.44663   0.01267  Uiso   1.00
O3213  O     0.17406   0.61622   0.44383   0.01267  Uiso   1.00
O3214  O     0.16059   0.62156   0.41120   0.01267  Uiso   1.00
O3215  O     0.13875   0.63267   0.58997   0.01267  Uiso   1.00
O3216  O     0.11943   0.61365   0.41549   0.01267  Uiso   1.00
O3217  O     0.12328   0.63111   0.45378   0.01267  Uiso   1.00
O3218  O     0.14848   0.64207   0.44507   0.01267  Uiso   1.00
O3219  O     0.16507   0.73232   0.43113   0.01267  Uiso   1.00
O3220  O     0.11686   0.73334   0.43064   0.01267  Uiso   1.00
O3221  O     0.18393   0.91087   0.47559   0.01267  Uiso   1.00
O3222  O     0.17925   0.78135   0.47774   0.01267  Uiso   1.00
O3223  O     0.17822   0.64987   0.48123   0.01267  Uiso   1.00
O3224  O     0.14070   0.91203   0.47203   0.01267  Uiso   1.00
O3225  O     0.13910   0.78430   0.48128   0.01267  Uiso   1.00
O3226  O     0.14037   0.65177   0.48244   0.01267  Uiso   1.00
O3227  O     0.10054   0.83442   0.43818   0.01267  Uiso   1.00
O3228  O     0.09951   0.63868   0.43983   0.01267  Uiso   1.00
O3229  O     0.07376   0.23337   0.44700   0.01267  Uiso   1.00
O3230  O     0.06080   0.21641   0.48015   0.01267  Uiso   1.00
O3231  O     0.04049   0.22745   0.50473   0.01267  Uiso   1.00
O3232  O     0.02045   0.21506   0.47961   0.01267  Uiso   1.00
O3233  O     0.02267   0.23339   0.44098   0.01267  Uiso   1.00
O3234  O     0.04792   0.24988   0.44759   0.01267  Uiso   1.00
O3235  O     0.07360   0.44695   0.44951   0.01267  Uiso   1.00
O3236  O     0.06043   0.45456   0.48244   0.01267  Uiso   1.00
O3237  O     0.03824   0.43554   0.50246   0.01267  Uiso   1.00
O3238  O     0.01766   0.45520   0.47919   0.01267  Uiso   1.00
O3239  O     0.02228   0.43391   0.44107   0.01267  Uiso   1.00
O3240  O     0.04758   0.42840   0.44920   0.01267  Uiso   1.00
O3241  O     0.06321   0.33781   0.46505   0.01267  Uiso   1.00
O3242  O     0.01595   0.33371   0.46482   0.01267  Uiso   1.00
O3243  O     0.08434   0.15683   0.41931   0.01267  Uiso   1.00
O3244  O     0.08236   0.28576   0.41299   0.01267  Uiso   1.00
O3245  O     0.07996   0.41708   0.41246   0.01267  Uiso   1.00
O3246  O     0.03963   0.15614   0.42266   0.01267  Uiso   1.00
O3247  O     0.03772   0.28201   0.41263   0.01267  Uiso   1.00
O3248  O     0.03938   0.41390   0.41219   0.01267  Uiso   1.00
O3249  O     0.19939   0.23485   0.45660   0.01267  Uiso   1.00
O3250  O     0.19816   0.42453   0.45491   0.01267  Uiso   1.00
O3251  O     0.02617   0.34559   0.54509   0.01267  Uiso   1.00
O3252  O     0.03875   0.34782   0.57900   0.01267  Uiso   1.00
O3253  O     0.05987   0.33971   0.40217   0.01267  Uiso   1.00
O3254  O     0.08092   0.35101   0.57927   0.01267  Uiso   1.00
O3255  O     0.07750   0.34243   0.54069   0.01267  Uiso   1.00
O3256  O     0.05199   0.32609   0.54634   0.01267  Uiso   1.00
O3257  O     0.02616   0.11649   0.55024   0.01267  Uiso   1.00
O3258  O     0.03828   0.13126   0.58410   0.01267  Uiso   1.00
O3259  O     0.06137   0.13647   0.40178   0.01267  Uiso   1.00
O3260  O     0.08329   0.12100   0.58152   0.01267  Uiso   1.00
O3261  O     0.07729   0.12219   0.54317   0.01267  Uiso   1.00
O3262  O     0.05208   0.13608   0.55095   0.01267  Uiso   1.00
O3263  O     0.03569   0.23376   0.55968   0.01267  Uiso   1.00
O3264  O     0.08322   0.23424   0.56163   0.01267  Uiso   1.00
O3265  O     0.01439   0.41036   0.51590   0.01267  Uiso   1.00
O3266  O     0.01754   0.28017   0.51320   0.01267  Uiso   1.00
O3267  O     0.02031   0.14893   0.51301   0.01267  Uiso   1.00
O3268  O     0.06113   0.41167   0.51950   0.01267  Uiso   1.00
O3269  O     0.06335   0.28126   0.51366   0.01267  Uiso   1.00
O3270  O     0.06068   0.14952   0.51386   0.01267  Uiso   1.00
O3271  O     0.10106   0.32947   0.55516   0.01267  Uiso   1.00
O3272  O     0.10166   0.14318   0.55489   0.01267  Uiso   1.00
O3273  O     0.08671   0.53297   0.42673   0.01267  Uiso   1.00
O3274  O     0.03802   0.53056   0.42803   0.01267  Uiso   1.00
O3275  O     0.05457   0.53483   0.51211   0.01267  Uiso   1.00
O3276  O     0.02141   0.53464   0.50960   0.01267  Uiso   1.00
O3277  O     0.01327   0.03307   0.52711   0.01267  Uiso   1.00
O3278  O     0.06031   0.03147   0.53052   0.01267  Uiso   1.00
O3279  O     0.04491   0.03735   0.41008   0.01267  Uiso   1.00
O3280  O     0.07765   0.03542   0.40994   0.01267  Uiso   1.00
O3281  O     0.11330   0.03329   0.56819   0.01267  Uiso   1.00
O3282  O     0.16012   0.03549   0.56473   0.01267  Uiso   1.00
O3283  O     0.14459   0.03235   0.48530   0.01267  Uiso   1.00
O3284  O     0.17807   0.03363   0.48531   0.01267  Uiso   1.00
O3285  O     0.18653   0.53477   0.46797   0.01267  Uiso   1.00
O3286  O     0.13963   0.53603   0.46527   0.01267  Uiso   1.00
O3287  O     0.15523   0.53143   0.58424   0.01267  Uiso   1.00
O3288  O     0.12171   0.53284   0.58512   0.01267  Uiso   1.00
H3289  H     0.07836   0.61034   0.49640   0.01267  Uiso   1.00
H3290  H     0.11803   0.56025   0.48748   0.01267  Uiso   1.00
H3291  H     0.09611   0.60087   0.47473   0.01267  Uiso   1.00
H3292  H     0.07928   0.58796   0.53030   0.01267  Uiso   1.00
H3293  H     0.10054   0.54786   0.54554   0.01267  Uiso   1.00
H3294  H     0.12017   0.53368   0.52346   0.01267  Uiso   1.00
C3295  C     0.11084   0.55093   0.51750   0.01267  Uiso   1.00
C3296  C     0.10975   0.56565   0.49745   0.01267  Uiso   1.00
C3297  C     0.09783   0.58779   0.49009   0.01267  Uiso   1.00
C3298  C     0.08823   0.58054   0.52178   0.01267  Uiso   1.00
C3299  C     0.09996   0.55859   0.52983   0.01267  Uiso   1.00
N3300  N     0.08749   0.59435   0.50234   0.01267  Uiso   1.00
Si3301 Si    0.28561   0.84225   0.43009   0.01267  Uiso   1.00
Si3302 Si    0.26278   0.81360   0.46027   0.01267  Uiso   1.00
Si3303 Si    0.25583   0.84479   0.50339   0.01267  Uiso   1.00
Si3304 Si    0.22475   0.84618   0.50399   0.01267  Uiso   1.00
Si3305 Si    0.21407   0.81247   0.46182   0.01267  Uiso   1.00
Si3306 Si    0.23775   0.85034   0.43538   0.01267  Uiso   1.00
Si3307 Si    0.25332   0.61381   0.50670   0.01267  Uiso   1.00
Si3308 Si    0.22279   0.61254   0.50363   0.01267  Uiso   1.00
Si3309 Si    0.21342   0.65538   0.46086   0.01267  Uiso   1.00
Si3310 Si    0.23728   0.60581   0.43693   0.01267  Uiso   1.00
Si3311 Si    0.21616   0.72596   0.53282   0.01267  Uiso   1.00
Si3312 Si    0.23725   0.75636   0.56392   0.01267  Uiso   1.00
Si3313 Si    0.24379   0.72491   0.40809   0.01267  Uiso   1.00
Si3314 Si    0.27525   0.72020   0.40453   0.01267  Uiso   1.00
Si3315 Si    0.28454   0.75344   0.56158   0.01267  Uiso   1.00
Si3316 Si    0.26086   0.72720   0.53492   0.01267  Uiso   1.00
Si3317 Si    0.21539   0.95611   0.53338   0.01267  Uiso   1.00
Si3318 Si    0.23782   0.91458   0.56251   0.01267  Uiso   1.00
Si3319 Si    0.24574   0.95877   0.40524   0.01267  Uiso   1.00
Si3320 Si    0.27637   0.95824   0.40332   0.01267  Uiso   1.00
Si3321 Si    0.28589   0.91164   0.56112   0.01267  Uiso   1.00
Si3322 Si    0.26224   0.95289   0.53494   0.01267  Uiso   1.00
Si3323 Si    0.31519   0.33982   0.56571   0.01267  Uiso   1.00
Si3324 Si    0.33830   0.31154   0.53588   0.01267  Uiso   1.00
Si3325 Si    0.34378   0.34875   0.49231   0.01267  Uiso   1.00
Si3326 Si    0.37535   0.34962   0.49268   0.01267  Uiso   1.00
Si3327 Si    0.38542   0.31200   0.53485   0.01267  Uiso   1.00
Si3328 Si    0.36293   0.33679   0.56427   0.01267  Uiso   1.00
Si3329 Si    0.31525   0.11132   0.56325   0.01267  Uiso   1.00
Si3330 Si    0.33833   0.15455   0.53438   0.01267  Uiso   1.00
Si3331 Si    0.34591   0.10962   0.49171   0.01267  Uiso   1.00
Si3332 Si    0.37663   0.10913   0.49336   0.01267  Uiso   1.00
Si3333 Si    0.38622   0.15438   0.53533   0.01267  Uiso   1.00
Si3334 Si    0.36257   0.11429   0.56166   0.01267  Uiso   1.00
Si3335 Si    0.38502   0.22684   0.46654   0.01267  Uiso   1.00
Si3336 Si    0.36174   0.25522   0.43712   0.01267  Uiso   1.00
Si3337 Si    0.35600   0.21915   0.59322   0.01267  Uiso   1.00
Si3338 Si    0.32432   0.21829   0.59315   0.01267  Uiso   1.00
Si3339 Si    0.31441   0.25572   0.43571   0.01267  Uiso   1.00
Si3340 Si    0.33677   0.22759   0.46509   0.01267  Uiso   1.00
Si3341 Si    0.38450   0.45707   0.46266   0.01267  Uiso   1.00
Si3342 Si    0.36165   0.41398   0.43388   0.01267  Uiso   1.00
Si3343 Si    0.35388   0.45421   0.59068   0.01267  Uiso   1.00
Si3344 Si    0.32311   0.45652   0.59276   0.01267  Uiso   1.00
Si3345 Si    0.31366   0.41346   0.43542   0.01267  Uiso   1.00
Si3346 Si    0.33740   0.45749   0.46093   0.01267  Uiso   1.00
Si3347 Si    0.31403   0.72581   0.56664   0.01267  Uiso   1.00
Si3348 Si    0.33718   0.75373   0.53673   0.01267  Uiso   1.00
Si3349 Si    0.34407   0.72051   0.49376   0.01267  Uiso   1.00
Si3350 Si    0.37531   0.72011   0.49205   0.01267  Uiso   1.00
Si3351 Si    0.38627   0.75573   0.53380   0.01267  Uiso   1.00
Si3352 Si    0.36312   0.72372   0.56221   0.01267  Uiso   1.00
Si3353 Si    0.31522   0.95587   0.56240   0.01267  Uiso   1.00
Si3354 Si    0.33766   0.91329   0.53321   0.01267  Uiso   1.00
Si3355 Si    0.34614   0.95420   0.49068   0.01267  Uiso   1.00
Si3356 Si    0.37689   0.95655   0.49215   0.01267  Uiso   1.00
Si3357 Si    0.38641   0.91313   0.53451   0.01267  Uiso   1.00
Si3358 Si    0.36218   0.95772   0.55950   0.01267  Uiso   1.00
Si3359 Si    0.38425   0.84128   0.46354   0.01267  Uiso   1.00
Si3360 Si    0.36226   0.81123   0.43372   0.01267  Uiso   1.00
Si3361 Si    0.35608   0.84424   0.58947   0.01267  Uiso   1.00
Si3362 Si    0.32487   0.84689   0.59162   0.01267  Uiso   1.00
Si3363 Si    0.33824   0.83795   0.46343   0.01267  Uiso   1.00
Si3364 Si    0.38433   0.61201   0.46209   0.01267  Uiso   1.00
Si3365 Si    0.36208   0.65359   0.43289   0.01267  Uiso   1.00
Si3366 Si    0.35410   0.60952   0.58974   0.01267  Uiso   1.00
Si3367 Si    0.32355   0.60919   0.59246   0.01267  Uiso   1.00
Si3368 Si    0.33812   0.61528   0.46135   0.01267  Uiso   1.00
Si3369 Si    0.28470   0.22929   0.42975   0.01267  Uiso   1.00
Si3370 Si    0.26142   0.25959   0.45988   0.01267  Uiso   1.00
Si3371 Si    0.25630   0.21824   0.50313   0.01267  Uiso   1.00
Si3372 Si    0.22475   0.21795   0.50261   0.01267  Uiso   1.00
Si3373 Si    0.21461   0.25459   0.46060   0.01267  Uiso   1.00
Si3374 Si    0.23712   0.23048   0.43100   0.01267  Uiso   1.00
Si3375 Si    0.28454   0.45578   0.43236   0.01267  Uiso   1.00
Si3376 Si    0.25350   0.45921   0.50399   0.01267  Uiso   1.00
Si3377 Si    0.22292   0.45901   0.50175   0.01267  Uiso   1.00
Si3378 Si    0.21358   0.41176   0.45996   0.01267  Uiso   1.00
Si3379 Si    0.23687   0.45258   0.43284   0.01267  Uiso   1.00
Si3380 Si    0.21489   0.34132   0.52827   0.01267  Uiso   1.00
Si3381 Si    0.23816   0.31292   0.55752   0.01267  Uiso   1.00
Si3382 Si    0.24397   0.34608   0.40155   0.01267  Uiso   1.00
Si3383 Si    0.27565   0.34841   0.40181   0.01267  Uiso   1.00
Si3384 Si    0.28566   0.31349   0.55932   0.01267  Uiso   1.00
Si3385 Si    0.26326   0.34015   0.52998   0.01267  Uiso   1.00
Si3386 Si    0.21536   0.11047   0.53276   0.01267  Uiso   1.00
Si3387 Si    0.23812   0.15440   0.56122   0.01267  Uiso   1.00
Si3388 Si    0.24602   0.11509   0.40448   0.01267  Uiso   1.00
Si3389 Si    0.27662   0.11234   0.40309   0.01267  Uiso   1.00
Si3390 Si    0.28628   0.15524   0.56035   0.01267  Uiso   1.00
Si3391 Si    0.26256   0.10986   0.53460   0.01267  Uiso   1.00
Si3392 Si    0.31557   0.81298   0.43426   0.01267  Uiso   1.00
Si3393 Si    0.31464   0.65490   0.43477   0.01267  Uiso   1.00
Si3394 Si    0.28492   0.60995   0.43394   0.01267  Uiso   1.00
Si3395 Si    0.26110   0.41691   0.46129   0.01267  Uiso   1.00
Al3396 Al    0.26188   0.65046   0.46330   0.01267  Uiso   1.00
O3397  O     0.27568   0.84207   0.44861   0.01267  Uiso   1.00
O3398  O     0.26408   0.83937   0.48312   0.01267  Uiso   1.00
O3399  O     0.24020   0.84616   0.49845   0.01267  Uiso   1.00
O3400  O     0.21593   0.83841   0.48432   0.01267  Uiso   1.00
O3401  O     0.22378   0.85166   0.44697   0.01267  Uiso   1.00
O3402  O     0.24980   0.84927   0.45087   0.01267  Uiso   1.00
O3403  O     0.27596   0.61481   0.45315   0.01267  Uiso   1.00
O3404  O     0.26328   0.63255   0.48899   0.01267  Uiso   1.00
O3405  O     0.23821   0.63325   0.50155   0.01267  Uiso   1.00
O3406  O     0.21542   0.62562   0.48292   0.01267  Uiso   1.00
O3407  O     0.22216   0.61659   0.44471   0.01267  Uiso   1.00
O3408  O     0.24751   0.61507   0.45451   0.01267  Uiso   1.00
O3409  O     0.26188   0.73502   0.45882   0.01267  Uiso   1.00
O3410  O     0.21719   0.73364   0.46075   0.01267  Uiso   1.00
O3411  O     0.28473   0.91280   0.41843   0.01267  Uiso   1.00
O3412  O     0.28288   0.78221   0.41461   0.01267  Uiso   1.00
O3413  O     0.27939   0.65082   0.41488   0.01267  Uiso   1.00
O3414  O     0.23838   0.91857   0.42261   0.01267  Uiso   1.00
O3415  O     0.23810   0.78664   0.42078   0.01267  Uiso   1.00
O3416  O     0.23988   0.65518   0.41820   0.01267  Uiso   1.00
O3417  O     0.39895   0.82722   0.45552   0.01267  Uiso   1.00
O3418  O     0.39797   0.64633   0.45521   0.01267  Uiso   1.00
O3419  O     0.22556   0.71887   0.55202   0.01267  Uiso   1.00
O3420  O     0.23734   0.72780   0.58616   0.01267  Uiso   1.00
O3421  O     0.25961   0.73234   0.40610   0.01267  Uiso   1.00
O3422  O     0.27963   0.71593   0.58143   0.01267  Uiso   1.00
O3423  O     0.27601   0.72869   0.54268   0.01267  Uiso   1.00
O3424  O     0.25139   0.74236   0.55356   0.01267  Uiso   1.00
O3425  O     0.22602   0.95211   0.55107   0.01267  Uiso   1.00
O3426  O     0.23842   0.94513   0.58447   0.01267  Uiso   1.00
O3427  O     0.26103   0.93507   0.40364   0.01267  Uiso   1.00
O3428  O     0.28220   0.95145   0.58112   0.01267  Uiso   1.00
O3429  O     0.27706   0.93936   0.54299   0.01267  Uiso   1.00
O3430  O     0.25179   0.92743   0.55147   0.01267  Uiso   1.00
O3431  O     0.23463   0.83589   0.56351   0.01267  Uiso   1.00
O3432  O     0.28314   0.83306   0.56445   0.01267  Uiso   1.00
O3433  O     0.21592   0.65609   0.52092   0.01267  Uiso   1.00
O3434  O     0.22177   0.78484   0.51883   0.01267  Uiso   1.00
O3435  O     0.22075   0.91604   0.51426   0.01267  Uiso   1.00
O3436  O     0.25801   0.65269   0.52668   0.01267  Uiso   1.00
O3437  O     0.25889   0.78135   0.51755   0.01267  Uiso   1.00
O3438  O     0.26003   0.91306   0.51450   0.01267  Uiso   1.00
O3439  O     0.29966   0.73304   0.55658   0.01267  Uiso   1.00
O3440  O     0.30128   0.92362   0.55570   0.01267  Uiso   1.00
O3441  O     0.32644   0.34312   0.54879   0.01267  Uiso   1.00
O3442  O     0.33903   0.35220   0.51517   0.01267  Uiso   1.00
O3443  O     0.35958   0.33962   0.49095   0.01267  Uiso   1.00
O3444  O     0.37982   0.35087   0.51557   0.01267  Uiso   1.00
O3445  O     0.37737   0.33585   0.55425   0.01267  Uiso   1.00
O3446  O     0.35209   0.31933   0.54752   0.01267  Uiso   1.00
O3447  O     0.32649   0.12021   0.54655   0.01267  Uiso   1.00
O3448  O     0.33883   0.11954   0.51294   0.01267  Uiso   1.00
O3449  O     0.36126   0.13171   0.49339   0.01267  Uiso   1.00
O3450  O     0.38232   0.11284   0.51566   0.01267  Uiso   1.00
O3451  O     0.37740   0.12841   0.55378   0.01267  Uiso   1.00
O3452  O     0.35225   0.14438   0.54566   0.01267  Uiso   1.00
O3453  O     0.33551   0.23348   0.53177   0.01267  Uiso   1.00
O3454  O     0.38352   0.23273   0.53135   0.01267  Uiso   1.00
O3455  O     0.31502   0.41015   0.57746   0.01267  Uiso   1.00
O3456  O     0.31776   0.27968   0.58114   0.01267  Uiso   1.00
O3457  O     0.31978   0.14838   0.58345   0.01267  Uiso   1.00
O3458  O     0.36032   0.41021   0.57321   0.01267  Uiso   1.00
O3459  O     0.36246   0.28235   0.58192   0.01267  Uiso   1.00
O3460  O     0.36050   0.15012   0.58290   0.01267  Uiso   1.00
O3461  O     0.20072   0.33011   0.53871   0.01267  Uiso   1.00
O3462  O     0.20159   0.14229   0.54054   0.01267  Uiso   1.00
O3463  O     0.37397   0.22459   0.44934   0.01267  Uiso   1.00
O3464  O     0.36100   0.21841   0.41589   0.01267  Uiso   1.00
O3465  O     0.34013   0.22621   0.59221   0.01267  Uiso   1.00
O3466  O     0.31935   0.21892   0.41576   0.01267  Uiso   1.00
O3467  O     0.32256   0.22717   0.45440   0.01267  Uiso   1.00
O3468  O     0.34811   0.24252   0.44887   0.01267  Uiso   1.00
O3469  O     0.37359   0.45009   0.44532   0.01267  Uiso   1.00
O3470  O     0.36144   0.44091   0.41136   0.01267  Uiso   1.00
O3471  O     0.33846   0.43394   0.59315   0.01267  Uiso   1.00
O3472  O     0.31704   0.45039   0.41474   0.01267  Uiso   1.00
O3473  O     0.32247   0.44599   0.45302   0.01267  Uiso   1.00
O3474  O     0.34767   0.43158   0.44433   0.01267  Uiso   1.00
O3475  O     0.36385   0.33442   0.43412   0.01267  Uiso   1.00
O3476  O     0.31702   0.33506   0.43340   0.01267  Uiso   1.00
O3477  O     0.38481   0.15787   0.47889   0.01267  Uiso   1.00
O3478  O     0.38252   0.28864   0.48144   0.01267  Uiso   1.00
O3479  O     0.37949   0.41968   0.48260   0.01267  Uiso   1.00
O3480  O     0.33886   0.15540   0.47517   0.01267  Uiso   1.00
O3481  O     0.33683   0.28555   0.48179   0.01267  Uiso   1.00
O3482  O     0.33944   0.41786   0.48163   0.01267  Uiso   1.00
O3483  O     0.29902   0.24052   0.43968   0.01267  Uiso   1.00
O3484  O     0.29827   0.42423   0.44071   0.01267  Uiso   1.00
O3485  O     0.32502   0.72359   0.54934   0.01267  Uiso   1.00
O3486  O     0.33663   0.71987   0.51497   0.01267  Uiso   1.00
O3487  O     0.35978   0.72517   0.49735   0.01267  Uiso   1.00
O3488  O     0.38380   0.72323   0.51220   0.01267  Uiso   1.00
O3489  O     0.37680   0.72140   0.55008   0.01267  Uiso   1.00
O3490  O     0.35099   0.73498   0.54709   0.01267  Uiso   1.00
O3491  O     0.32551   0.94999   0.54416   0.01267  Uiso   1.00
O3492  O     0.33766   0.93537   0.51022   0.01267  Uiso   1.00
O3493  O     0.36150   0.93559   0.49460   0.01267  Uiso   1.00
O3494  O     0.38421   0.94762   0.51316   0.01267  Uiso   1.00
O3495  O     0.37691   0.94675   0.55094   0.01267  Uiso   1.00
O3496  O     0.35159   0.93487   0.54291   0.01267  Uiso   1.00
O3497  O     0.33574   0.83363   0.53513   0.01267  Uiso   1.00
O3498  O     0.38304   0.83463   0.53288   0.01267  Uiso   1.00
O3499  O     0.31433   0.65600   0.57878   0.01267  Uiso   1.00
O3500  O     0.31637   0.78737   0.58167   0.01267  Uiso   1.00
O3501  O     0.32092   0.91748   0.58172   0.01267  Uiso   1.00
O3502  O     0.36173   0.65241   0.57315   0.01267  Uiso   1.00
O3503  O     0.36354   0.78351   0.57833   0.01267  Uiso   1.00
O3504  O     0.36005   0.91483   0.57956   0.01267  Uiso   1.00
O3505  O     0.20138   0.74324   0.54019   0.01267  Uiso   1.00
O3506  O     0.20158   0.92438   0.54110   0.01267  Uiso   1.00
O3507  O     0.37457   0.84670   0.44457   0.01267  Uiso   1.00
O3508  O     0.36045   0.84616   0.41239   0.01267  Uiso   1.00
O3509  O     0.34032   0.83186   0.58769   0.01267  Uiso   1.00
O3510  O     0.32170   0.85033   0.41500   0.01267  Uiso   1.00
O3511  O     0.32374   0.83465   0.45374   0.01267  Uiso   1.00
O3512  O     0.34900   0.82034   0.44663   0.01267  Uiso   1.00
O3513  O     0.37406   0.61622   0.44383   0.01267  Uiso   1.00
O3514  O     0.36059   0.62156   0.41120   0.01267  Uiso   1.00
O3515  O     0.33875   0.63267   0.58997   0.01267  Uiso   1.00
O3516  O     0.31943   0.61365   0.41549   0.01267  Uiso   1.00
O3517  O     0.32328   0.63111   0.45378   0.01267  Uiso   1.00
O3518  O     0.34848   0.64207   0.44507   0.01267  Uiso   1.00
O3519  O     0.36507   0.73232   0.43113   0.01267  Uiso   1.00
O3520  O     0.31686   0.73334   0.43064   0.01267  Uiso   1.00
O3521  O     0.38393   0.91087   0.47559   0.01267  Uiso   1.00
O3522  O     0.37925   0.78135   0.47774   0.01267  Uiso   1.00
O3523  O     0.37822   0.64987   0.48123   0.01267  Uiso   1.00
O3524  O     0.34070   0.91203   0.47203   0.01267  Uiso   1.00
O3525  O     0.33910   0.78430   0.48128   0.01267  Uiso   1.00
O3526  O     0.34037   0.65177   0.48244   0.01267  Uiso   1.00
O3527  O     0.30054   0.83442   0.43818   0.01267  Uiso   1.00
O3528  O     0.29951   0.63868   0.43983   0.01267  Uiso   1.00
O3529  O     0.27376   0.23337   0.44700   0.01267  Uiso   1.00
O3530  O     0.26080   0.21641   0.48015   0.01267  Uiso   1.00
O3531  O     0.24049   0.22745   0.50473   0.01267  Uiso   1.00
O3532  O     0.22045   0.21506   0.47961   0.01267  Uiso   1.00
O3533  O     0.22267   0.23339   0.44098   0.01267  Uiso   1.00
O3534  O     0.24792   0.24988   0.44759   0.01267  Uiso   1.00
O3535  O     0.27360   0.44695   0.44951   0.01267  Uiso   1.00
O3536  O     0.26043   0.45456   0.48244   0.01267  Uiso   1.00
O3537  O     0.23824   0.43554   0.50246   0.01267  Uiso   1.00
O3538  O     0.21766   0.45520   0.47919   0.01267  Uiso   1.00
O3539  O     0.22228   0.43391   0.44107   0.01267  Uiso   1.00
O3540  O     0.24758   0.42840   0.44920   0.01267  Uiso   1.00
O3541  O     0.26321   0.33781   0.46505   0.01267  Uiso   1.00
O3542  O     0.21595   0.33371   0.46482   0.01267  Uiso   1.00
O3543  O     0.28434   0.15683   0.41931   0.01267  Uiso   1.00
O3544  O     0.28236   0.28576   0.41299   0.01267  Uiso   1.00
O3545  O     0.27996   0.41708   0.41246   0.01267  Uiso   1.00
O3546  O     0.23963   0.15614   0.42266   0.01267  Uiso   1.00
O3547  O     0.23772   0.28201   0.41263   0.01267  Uiso   1.00
O3548  O     0.23938   0.41390   0.41219   0.01267  Uiso   1.00
O3549  O     0.39939   0.23485   0.45660   0.01267  Uiso   1.00
O3550  O     0.39816   0.42453   0.45491   0.01267  Uiso   1.00
O3551  O     0.22617   0.34559   0.54509   0.01267  Uiso   1.00
O3552  O     0.23875   0.34782   0.57900   0.01267  Uiso   1.00
O3553  O     0.25987   0.33971   0.40217   0.01267  Uiso   1.00
O3554  O     0.28092   0.35101   0.57927   0.01267  Uiso   1.00
O3555  O     0.27750   0.34243   0.54069   0.01267  Uiso   1.00
O3556  O     0.25199   0.32609   0.54634   0.01267  Uiso   1.00
O3557  O     0.22616   0.11649   0.55024   0.01267  Uiso   1.00
O3558  O     0.23828   0.13126   0.58410   0.01267  Uiso   1.00
O3559  O     0.26137   0.13647   0.40178   0.01267  Uiso   1.00
O3560  O     0.28329   0.12100   0.58152   0.01267  Uiso   1.00
O3561  O     0.27729   0.12219   0.54317   0.01267  Uiso   1.00
O3562  O     0.25208   0.13608   0.55095   0.01267  Uiso   1.00
O3563  O     0.23569   0.23376   0.55968   0.01267  Uiso   1.00
O3564  O     0.28322   0.23424   0.56163   0.01267  Uiso   1.00
O3565  O     0.21439   0.41036   0.51590   0.01267  Uiso   1.00
O3566  O     0.21754   0.28017   0.51320   0.01267  Uiso   1.00
O3567  O     0.22031   0.14893   0.51301   0.01267  Uiso   1.00
O3568  O     0.26113   0.41167   0.51950   0.01267  Uiso   1.00
O3569  O     0.26335   0.28126   0.51366   0.01267  Uiso   1.00
O3570  O     0.26068   0.14952   0.51386   0.01267  Uiso   1.00
O3571  O     0.30106   0.32947   0.55516   0.01267  Uiso   1.00
O3572  O     0.30166   0.14318   0.55489   0.01267  Uiso   1.00
O3573  O     0.28671   0.53297   0.42673   0.01267  Uiso   1.00
O3574  O     0.23802   0.53056   0.42803   0.01267  Uiso   1.00
O3575  O     0.25457   0.53483   0.51211   0.01267  Uiso   1.00
O3576  O     0.22141   0.53464   0.50960   0.01267  Uiso   1.00
O3577  O     0.21327   0.03307   0.52711   0.01267  Uiso   1.00
O3578  O     0.26031   0.03147   0.53052   0.01267  Uiso   1.00
O3579  O     0.24491   0.03735   0.41008   0.01267  Uiso   1.00
O3580  O     0.27765   0.03542   0.40994   0.01267  Uiso   1.00
O3581  O     0.31330   0.03329   0.56819   0.01267  Uiso   1.00
O3582  O     0.36012   0.03549   0.56473   0.01267  Uiso   1.00
O3583  O     0.34459   0.03235   0.48530   0.01267  Uiso   1.00
O3584  O     0.37807   0.03363   0.48531   0.01267  Uiso   1.00
O3585  O     0.38653   0.53477   0.46797   0.01267  Uiso   1.00
O3586  O     0.33963   0.53603   0.46527   0.01267  Uiso   1.00
O3587  O     0.35523   0.53143   0.58424   0.01267  Uiso   1.00
O3588  O     0.32171   0.53284   0.58512   0.01267  Uiso   1.00
H3589  H     0.27836   0.61034   0.49640   0.01267  Uiso   1.00
H3590  H     0.31803   0.56025   0.48748   0.01267  Uiso   1.00
H3591  H     0.29611   0.60087   0.47473   0.01267  Uiso   1.00
H3592  H     0.27928   0.58796   0.53030   0.01267  Uiso   1.00
H3593  H     0.30054   0.54786   0.54554   0.01267  Uiso   1.00
H3594  H     0.32017   0.53368   0.52346   0.01267  Uiso   1.00
C3595  C     0.31084   0.55093   0.51750   0.01267  Uiso   1.00
C3596  C     0.30975   0.56565   0.49745   0.01267  Uiso   1.00
C3597  C     0.29783   0.58779   0.49009   0.01267  Uiso   1.00
C3598  C     0.28823   0.58054   0.52178   0.01267  Uiso   1.00
C3599  C     0.29996   0.55859   0.52983   0.01267  Uiso   1.00
N3600  N     0.28749   0.59435   0.50234   0.01267  Uiso   1.00
Si3601 Si    0.48561   0.84225   0.43009   0.01267  Uiso   1.00
Si3602 Si    0.46278   0.81360   0.46027   0.01267  Uiso   1.00
Si3603 Si    0.45583   0.84479   0.50339   0.01267  Uiso   1.00
Si3604 Si    0.42475   0.84618   0.50399   0.01267  Uiso   1.00
Si3605 Si    0.41407   0.81247   0.46182   0.01267  Uiso   1.00
Si3606 Si    0.43775   0.85034   0.43538   0.01267  Uiso   1.00
Si3607 Si    0.45332   0.61381   0.50670   0.01267  Uiso   1.00
Si3608 Si    0.42279   0.61254   0.50363   0.01267  Uiso   1.00
Si3609 Si    0.41342   0.65538   0.46086   0.01267  Uiso   1.00
Si3610 Si    0.43728   0.60581   0.43693   0.01267  Uiso   1.00
Si3611 Si    0.41616   0.72596   0.53282   0.01267  Uiso   1.00
Si3612 Si    0.43725   0.75636   0.56392   0.01267  Uiso   1.00
Si3613 Si    0.44379   0.72491   0.40809   0.01267  Uiso   1.00
Si3614 Si    0.47525   0.72020   0.40453   0.01267  Uiso   1.00
Si3615 Si    0.48454   0.75344   0.56158   0.01267  Uiso   1.00
Si3616 Si    0.46086   0.72720   0.53492   0.01267  Uiso   1.00
Si3617 Si    0.41539   0.95611   0.53338   0.01267  Uiso   1.00
Si3618 Si    0.43782   0.91458   0.56251   0.01267  Uiso   1.00
Si3619 Si    0.44574   0.95877   0.40524   0.01267  Uiso   1.00
Si3620 Si    0.47637   0.95824   0.40332   0.01267  Uiso   1.00
Si3621 Si    0.48589   0.91164   0.56112   0.01267  Uiso   1.00
Si3622 Si    0.46224   0.95289   0.53494   0.01267  Uiso   1.00
Si3623 Si    0.51519   0.33982   0.56571   0.01267  Uiso   1.00
Si3624 Si    0.53830   0.31154   0.53588   0.01267  Uiso   1.00
Si3625 Si    0.54378   0.34875   0.49231   0.01267  Uiso   1.00
Si3626 Si    0.57535   0.34962   0.49268   0.01267  Uiso   1.00
Si3627 Si    0.58542   0.31200   0.53485   0.01267  Uiso   1.00
Si3628 Si    0.56293   0.33679   0.56427   0.01267  Uiso   1.00
Si3629 Si    0.51525   0.11132   0.56325   0.01267  Uiso   1.00
Si3630 Si    0.53833   0.15455   0.53438   0.01267  Uiso   1.00
Si3631 Si    0.54591   0.10962   0.49171   0.01267  Uiso   1.00
Si3632 Si    0.57663   0.10913   0.49336   0.01267  Uiso   1.00
Si3633 Si    0.58622   0.15438   0.53533   0.01267  Uiso   1.00
Si3634 Si    0.56257   0.11429   0.56166   0.01267  Uiso   1.00
Si3635 Si    0.58502   0.22684   0.46654   0.01267  Uiso   1.00
Si3636 Si    0.56174   0.25522   0.43712   0.01267  Uiso   1.00
Si3637 Si    0.55600   0.21915   0.59322   0.01267  Uiso   1.00
Si3638 Si    0.52432   0.21829   0.59315   0.01267  Uiso   1.00
Si3639 Si    0.51441   0.25572   0.43571   0.01267  Uiso   1.00
Si3640 Si    0.53677   0.22759   0.46509   0.01267  Uiso   1.00
Si3641 Si    0.58450   0.45707   0.46266   0.01267  Uiso   1.00
Si3642 Si    0.56165   0.41398   0.43388   0.01267  Uiso   1.00
Si3643 Si    0.55388   0.45421   0.59068   0.01267  Uiso   1.00
Si3644 Si    0.52311   0.45652   0.59276   0.01267  Uiso   1.00
Si3645 Si    0.51366   0.41346   0.43542   0.01267  Uiso   1.00
Si3646 Si    0.53740   0.45749   0.46093   0.01267  Uiso   1.00
Si3647 Si    0.51403   0.72581   0.56664   0.01267  Uiso   1.00
Si3648 Si    0.53718   0.75373   0.53673   0.01267  Uiso   1.00
Si3649 Si    0.54407   0.72051   0.49376   0.01267  Uiso   1.00
Si3650 Si    0.57531   0.72011   0.49205   0.01267  Uiso   1.00
Si3651 Si    0.58627   0.75573   0.53380   0.01267  Uiso   1.00
Si3652 Si    0.56312   0.72372   0.56221   0.01267  Uiso   1.00
Si3653 Si    0.51522   0.95587   0.56240   0.01267  Uiso   1.00
Si3654 Si    0.53766   0.91329   0.53321   0.01267  Uiso   1.00
Si3655 Si    0.54614   0.95420   0.49068   0.01267  Uiso   1.00
Si3656 Si    0.57689   0.95655   0.49215   0.01267  Uiso   1.00
Si3657 Si    0.58641   0.91313   0.53451   0.01267  Uiso   1.00
Si3658 Si    0.56218   0.95772   0.55950   0.01267  Uiso   1.00
Si3659 Si    0.58425   0.84128   0.46354   0.01267  Uiso   1.00
Si3660 Si    0.56226   0.81123   0.43372   0.01267  Uiso   1.00
Si3661 Si    0.55608   0.84424   0.58947   0.01267  Uiso   1.00
Si3662 Si    0.52487   0.84689   0.59162   0.01267  Uiso   1.00
Si3663 Si    0.53824   0.83795   0.46343   0.01267  Uiso   1.00
Si3664 Si    0.58433   0.61201   0.46209   0.01267  Uiso   1.00
Si3665 Si    0.56208   0.65359   0.43289   0.01267  Uiso   1.00
Si3666 Si    0.55410   0.60952   0.58974   0.01267  Uiso   1.00
Si3667 Si    0.52355   0.60919   0.59246   0.01267  Uiso   1.00
Si3668 Si    0.53812   0.61528   0.46135   0.01267  Uiso   1.00
Si3669 Si    0.48470   0.22929   0.42975   0.01267  Uiso   1.00
Si3670 Si    0.46142   0.25959   0.45988   0.01267  Uiso   1.00
Si3671 Si    0.45630   0.21824   0.50313   0.01267  Uiso   1.00
Si3672 Si    0.42475   0.21795   0.50261   0.01267  Uiso   1.00
Si3673 Si    0.41461   0.25459   0.46060   0.01267  Uiso   1.00
Si3674 Si    0.43712   0.23048   0.43100   0.01267  Uiso   1.00
Si3675 Si    0.48454   0.45578   0.43236   0.01267  Uiso   1.00
Si3676 Si    0.45350   0.45921   0.50399   0.01267  Uiso   1.00
Si3677 Si    0.42292   0.45901   0.50175   0.01267  Uiso   1.00
Si3678 Si    0.41358   0.41176   0.45996   0.01267  Uiso   1.00
Si3679 Si    0.43687   0.45258   0.43284   0.01267  Uiso   1.00
Si3680 Si    0.41489   0.34132   0.52827   0.01267  Uiso   1.00
Si3681 Si    0.43816   0.31292   0.55752   0.01267  Uiso   1.00
Si3682 Si    0.44397   0.34608   0.40155   0.01267  Uiso   1.00
Si3683 Si    0.47565   0.34841   0.40181   0.01267  Uiso   1.00
Si3684 Si    0.48566   0.31349   0.55932   0.01267  Uiso   1.00
Si3685 Si    0.46326   0.34015   0.52998   0.01267  Uiso   1.00
Si3686 Si    0.41536   0.11047   0.53276   0.01267  Uiso   1.00
Si3687 Si    0.43812   0.15440   0.56122   0.01267  Uiso   1.00
Si3688 Si    0.44602   0.11509   0.40448   0.01267  Uiso   1.00
Si3689 Si    0.47662   0.11234   0.40309   0.01267  Uiso   1.00
Si3690 Si    0.48628   0.15524   0.56035   0.01267  Uiso   1.00
Si3691 Si    0.46256   0.10986   0.53460   0.01267  Uiso   1.00
Si3692 Si    0.51557   0.81298   0.43426   0.01267  Uiso   1.00
Si3693 Si    0.51464   0.65490   0.43477   0.01267  Uiso   1.00
Si3694 Si    0.48492   0.60995   0.43394   0.01267  Uiso   1.00
Si3695 Si    0.46110   0.41691   0.46129   0.01267  Uiso   1.00
Al3696 Al    0.46188   0.65046   0.46330   0.01267  Uiso   1.00
O3697  O     0.47568   0.84207   0.44861   0.01267  Uiso   1.00
O3698  O     0.46408   0.83937   0.48312   0.01267  Uiso   1.00
O3699  O     0.44020   0.84616   0.49845   0.01267  Uiso   1.00
O3700  O     0.41593   0.83841   0.48432   0.01267  Uiso   1.00
O3701  O     0.42378   0.85166   0.44697   0.01267  Uiso   1.00
O3702  O     0.44980   0.84927   0.45087   0.01267  Uiso   1.00
O3703  O     0.47596   0.61481   0.45315   0.01267  Uiso   1.00
O3704  O     0.46328   0.63255   0.48899   0.01267  Uiso   1.00
O3705  O     0.43821   0.63325   0.50155   0.01267  Uiso   1.00
O3706  O     0.41542   0.62562   0.48292   0.01267  Uiso   1.00
O3707  O     0.42216   0.61659   0.44471   0.01267  Uiso   1.00
O3708  O     0.44751   0.61507   0.45451   0.01267  Uiso   1.00
O3709  O     0.46188   0.73502   0.45882   0.01267  Uiso   1.00
O3710  O     0.41719   0.73364   0.46075   0.01267  Uiso   1.00
O3711  O     0.48473   0.91280   0.41843   0.01267  Uiso   1.00
O3712  O     0.48288   0.78221   0.41461   0.01267  Uiso   1.00
O3713  O     0.47939   0.65082   0.41488   0.01267  Uiso   1.00
O3714  O     0.43838   0.91857   0.42261   0.01267  Uiso   1.00
O3715  O     0.43810   0.78664   0.42078   0.01267  Uiso   1.00
O3716  O     0.43987   0.65518   0.41820   0.01267  Uiso   1.00
O3717  O     0.59895   0.82722   0.45552   0.01267  Uiso   1.00
O3718  O     0.59797   0.64633   0.45521   0.01267  Uiso   1.00
O3719  O     0.42556   0.71887   0.55202   0.01267  Uiso   1.00
O3720  O     0.43734   0.72780   0.58616   0.01267  Uiso   1.00
O3721  O     0.45961   0.73234   0.40610   0.01267  Uiso   1.00
O3722  O     0.47963   0.71593   0.58143   0.01267  Uiso   1.00
O3723  O     0.47601   0.72869   0.54268   0.01267  Uiso   1.00
O3724  O     0.45139   0.74236   0.55356   0.01267  Uiso   1.00
O3725  O     0.42602   0.95211   0.55107   0.01267  Uiso   1.00
O3726  O     0.43842   0.94513   0.58447   0.01267  Uiso   1.00
O3727  O     0.46103   0.93507   0.40364   0.01267  Uiso   1.00
O3728  O     0.48220   0.95145   0.58112   0.01267  Uiso   1.00
O3729  O     0.47706   0.93936   0.54299   0.01267  Uiso   1.00
O3730  O     0.45179   0.92743   0.55147   0.01267  Uiso   1.00
O3731  O     0.43463   0.83589   0.56351   0.01267  Uiso   1.00
O3732  O     0.48314   0.83306   0.56445   0.01267  Uiso   1.00
O3733  O     0.41592   0.65609   0.52092   0.01267  Uiso   1.00
O3734  O     0.42177   0.78484   0.51883   0.01267  Uiso   1.00
O3735  O     0.42075   0.91604   0.51426   0.01267  Uiso   1.00
O3736  O     0.45801   0.65269   0.52668   0.01267  Uiso   1.00
O3737  O     0.45889   0.78135   0.51755   0.01267  Uiso   1.00
O3738  O     0.46003   0.91306   0.51450   0.01267  Uiso   1.00
O3739  O     0.49966   0.73304   0.55658   0.01267  Uiso   1.00
O3740  O     0.50128   0.92362   0.55570   0.01267  Uiso   1.00
O3741  O     0.52644   0.34312   0.54879   0.01267  Uiso   1.00
O3742  O     0.53903   0.35220   0.51517   0.01267  Uiso   1.00
O3743  O     0.55958   0.33962   0.49095   0.01267  Uiso   1.00
O3744  O     0.57982   0.35087   0.51557   0.01267  Uiso   1.00
O3745  O     0.57737   0.33585   0.55425   0.01267  Uiso   1.00
O3746  O     0.55209   0.31933   0.54752   0.01267  Uiso   1.00
O3747  O     0.52649   0.12021   0.54655   0.01267  Uiso   1.00
O3748  O     0.53883   0.11954   0.51294   0.01267  Uiso   1.00
O3749  O     0.56126   0.13171   0.49339   0.01267  Uiso   1.00
O3750  O     0.58232   0.11284   0.51566   0.01267  Uiso   1.00
O3751  O     0.57740   0.12841   0.55378   0.01267  Uiso   1.00
O3752  O     0.55225   0.14438   0.54566   0.01267  Uiso   1.00
O3753  O     0.53551   0.23348   0.53177   0.01267  Uiso   1.00
O3754  O     0.58352   0.23273   0.53135   0.01267  Uiso   1.00
O3755  O     0.51502   0.41015   0.57746   0.01267  Uiso   1.00
O3756  O     0.51776   0.27968   0.58114   0.01267  Uiso   1.00
O3757  O     0.51978   0.14838   0.58345   0.01267  Uiso   1.00
O3758  O     0.56032   0.41021   0.57321   0.01267  Uiso   1.00
O3759  O     0.56246   0.28235   0.58192   0.01267  Uiso   1.00
O3760  O     0.56050   0.15012   0.58290   0.01267  Uiso   1.00
O3761  O     0.40072   0.33011   0.53871   0.01267  Uiso   1.00
O3762  O     0.40159   0.14229   0.54054   0.01267  Uiso   1.00
O3763  O     0.57397   0.22459   0.44934   0.01267  Uiso   1.00
O3764  O     0.56100   0.21841   0.41589   0.01267  Uiso   1.00
O3765  O     0.54013   0.22621   0.59221   0.01267  Uiso   1.00
O3766  O     0.51935   0.21892   0.41576   0.01267  Uiso   1.00
O3767  O     0.52256   0.22717   0.45440   0.01267  Uiso   1.00
O3768  O     0.54811   0.24252   0.44887   0.01267  Uiso   1.00
O3769  O     0.57359   0.45009   0.44532   0.01267  Uiso   1.00
O3770  O     0.56144   0.44091   0.41136   0.01267  Uiso   1.00
O3771  O     0.53846   0.43394   0.59315   0.01267  Uiso   1.00
O3772  O     0.51704   0.45039   0.41474   0.01267  Uiso   1.00
O3773  O     0.52247   0.44599   0.45302   0.01267  Uiso   1.00
O3774  O     0.54767   0.43158   0.44433   0.01267  Uiso   1.00
O3775  O     0.56385   0.33442   0.43412   0.01267  Uiso   1.00
O3776  O     0.51702   0.33506   0.43340   0.01267  Uiso   1.00
O3777  O     0.58481   0.15787   0.47889   0.01267  Uiso   1.00
O3778  O     0.58252   0.28864   0.48144   0.01267  Uiso   1.00
O3779  O     0.57949   0.41968   0.48260   0.01267  Uiso   1.00
O3780  O     0.53886   0.15540   0.47517   0.01267  Uiso   1.00
O3781  O     0.53683   0.28555   0.48179   0.01267  Uiso   1.00
O3782  O     0.53944   0.41786   0.48163   0.01267  Uiso   1.00
O3783  O     0.49902   0.24052   0.43968   0.01267  Uiso   1.00
O3784  O     0.49827   0.42423   0.44071   0.01267  Uiso   1.00
O3785  O     0.52502   0.72359   0.54934   0.01267  Uiso   1.00
O3786  O     0.53663   0.71987   0.51497   0.01267  Uiso   1.00
O3787  O     0.55978   0.72517   0.49735   0.01267  Uiso   1.00
O3788  O     0.58380   0.72323   0.51220   0.01267  Uiso   1.00
O3789  O     0.57680   0.72140   0.55008   0.01267  Uiso   1.00
O3790  O     0.55099   0.73498   0.54709   0.01267  Uiso   1.00
O3791  O     0.52551   0.94999   0.54416   0.01267  Uiso   1.00
O3792  O     0.53766   0.93537   0.51022   0.01267  Uiso   1.00
O3793  O     0.56150   0.93559   0.49460   0.01267  Uiso   1.00
O3794  O     0.58421   0.94762   0.51316   0.01267  Uiso   1.00
O3795  O     0.57691   0.94675   0.55094   0.01267  Uiso   1.00
O3796  O     0.55159   0.93487   0.54291   0.01267  Uiso   1.00
O3797  O     0.53574   0.83363   0.53513   0.01267  Uiso   1.00
O3798  O     0.58304   0.83463   0.53288   0.01267  Uiso   1.00
O3799  O     0.51433   0.65600   0.57878   0.01267  Uiso   1.00
O3800  O     0.51637   0.78737   0.58167   0.01267  Uiso   1.00
O3801  O     0.52092   0.91748   0.58172   0.01267  Uiso   1.00
O3802  O     0.56173   0.65241   0.57315   0.01267  Uiso   1.00
O3803  O     0.56354   0.78351   0.57833   0.01267  Uiso   1.00
O3804  O     0.56005   0.91483   0.57956   0.01267  Uiso   1.00
O3805  O     0.40138   0.74324   0.54019   0.01267  Uiso   1.00
O3806  O     0.40158   0.92438   0.54110   0.01267  Uiso   1.00
O3807  O     0.57457   0.84670   0.44457   0.01267  Uiso   1.00
O3808  O     0.56045   0.84616   0.41239   0.01267  Uiso   1.00
O3809  O     0.54032   0.83186   0.58769   0.01267  Uiso   1.00
O3810  O     0.52170   0.85033   0.41500   0.01267  Uiso   1.00
O3811  O     0.52374   0.83465   0.45374   0.01267  Uiso   1.00
O3812  O     0.54900   0.82034   0.44663   0.01267  Uiso   1.00
O3813  O     0.57406   0.61622   0.44383   0.01267  Uiso   1.00
O3814  O     0.56059   0.62156   0.41120   0.01267  Uiso   1.00
O3815  O     0.53875   0.63267   0.58997   0.01267  Uiso   1.00
O3816  O     0.51943   0.61365   0.41549   0.01267  Uiso   1.00
O3817  O     0.52328   0.63111   0.45378   0.01267  Uiso   1.00
O3818  O     0.54848   0.64207   0.44507   0.01267  Uiso   1.00
O3819  O     0.56507   0.73232   0.43113   0.01267  Uiso   1.00
O3820  O     0.51686   0.73334   0.43064   0.01267  Uiso   1.00
O3821  O     0.58393   0.91087   0.47559   0.01267  Uiso   1.00
O3822  O     0.57925   0.78135   0.47774   0.01267  Uiso   1.00
O3823  O     0.57822   0.64987   0.48123   0.01267  Uiso   1.00
O3824  O     0.54070   0.91203   0.47203   0.01267  Uiso   1.00
O3825  O     0.53910   0.78430   0.48128   0.01267  Uiso   1.00
O3826  O     0.54037   0.65177   0.48244   0.01267  Uiso   1.00
O3827  O     0.50054   0.83442   0.43818   0.01267  Uiso   1.00
O3828  O     0.49951   0.63868   0.43983   0.01267  Uiso   1.00
O3829  O     0.47376   0.23337   0.44700   0.01267  Uiso   1.00
O3830  O     0.46080   0.21641   0.48015   0.01267  Uiso   1.00
O3831  O     0.44049   0.22745   0.50473   0.01267  Uiso   1.00
O3832  O     0.42045   0.21506   0.47961   0.01267  Uiso   1.00
O3833  O     0.42267   0.23339   0.44098   0.01267  Uiso   1.00
O3834  O     0.44792   0.24988   0.44759   0.01267  Uiso   1.00
O3835  O     0.47360   0.44695   0.44951   0.01267  Uiso   1.00
O3836  O     0.46043   0.45456   0.48244   0.01267  Uiso   1.00
O3837  O     0.43824   0.43554   0.50246   0.01267  Uiso   1.00
O3838  O     0.41766   0.45520   0.47919   0.01267  Uiso   1.00
O3839  O     0.42228   0.43391   0.44107   0.01267  Uiso   1.00
O3840  O     0.44758   0.42840   0.44920   0.01267  Uiso   1.00
O3841  O     0.46321   0.33781   0.46505   0.01267  Uiso   1.00
O3842  O     0.41595   0.33371   0.46482   0.01267  Uiso   1.00
O3843  O     0.48434   0.15683   0.41931   0.01267  Uiso   1.00
O3844  O     0.48236   0.28576   0.41299   0.01267  Uiso   1.00
O3845  O     0.47996   0.41708   0.41246   0.01267  Uiso   1.00
O3846  O     0.43963   0.15614   0.42266   0.01267  Uiso   1.00
O3847  O     0.43772   0.28201   0.41263   0.01267  Uiso   1.00
O3848  O     0.43938   0.41390   0.41219   0.01267  Uiso   1.00
O3849  O     0.59939   0.23485   0.45660   0.01267  Uiso   1.00
O3850  O     0.59816   0.42453   0.45491   0.01267  Uiso   1.00
O3851  O     0.42617   0.34559   0.54509   0.01267  Uiso   1.00
O3852  O     0.43875   0.34782   0.57900   0.01267  Uiso   1.00
O3853  O     0.45987   0.33971   0.40217   0.01267  Uiso   1.00
O3854  O     0.48092   0.35101   0.57927   0.01267  Uiso   1.00
O3855  O     0.47750   0.34243   0.54069   0.01267  Uiso   1.00
O3856  O     0.45199   0.32609   0.54634   0.01267  Uiso   1.00
O3857  O     0.42616   0.11649   0.55024   0.01267  Uiso   1.00
O3858  O     0.43828   0.13126   0.58410   0.01267  Uiso   1.00
O3859  O     0.46137   0.13647   0.40178   0.01267  Uiso   1.00
O3860  O     0.48329   0.12100   0.58152   0.01267  Uiso   1.00
O3861  O     0.47729   0.12219   0.54317   0.01267  Uiso   1.00
O3862  O     0.45208   0.13608   0.55095   0.01267  Uiso   1.00
O3863  O     0.43569   0.23376   0.55968   0.01267  Uiso   1.00
O3864  O     0.48322   0.23424   0.56163   0.01267  Uiso   1.00
O3865  O     0.41439   0.41036   0.51590   0.01267  Uiso   1.00
O3866  O     0.41754   0.28017   0.51320   0.01267  Uiso   1.00
O3867  O     0.42031   0.14893   0.51301   0.01267  Uiso   1.00
O3868  O     0.46113   0.41167   0.51950   0.01267  Uiso   1.00
O3869  O     0.46335   0.28126   0.51366   0.01267  Uiso   1.00
O3870  O     0.46068   0.14952   0.51386   0.01267  Uiso   1.00
O3871  O     0.50106   0.32947   0.55516   0.01267  Uiso   1.00
O3872  O     0.50166   0.14318   0.55489   0.01267  Uiso   1.00
O3873  O     0.48671   0.53297   0.42673   0.01267  Uiso   1.00
O3874  O     0.43802   0.53056   0.42803   0.01267  Uiso   1.00
O3875  O     0.45457   0.53483   0.51211   0.01267  Uiso   1.00
O3876  O     0.42141   0.53464   0.50960   0.01267  Uiso   1.00
O3877  O     0.41327   0.03307   0.52711   0.01267  Uiso   1.00
O3878  O     0.46031   0.03147   0.53052   0.01267  Uiso   1.00
O3879  O     0.44491   0.03735   0.41008   0.01267  Uiso   1.00
O3880  O     0.47765   0.03542   0.40994   0.01267  Uiso   1.00
O3881  O     0.51330   0.03329   0.56819   0.01267  Uiso   1.00
O3882  O     0.56012   0.03549   0.56473   0.01267  Uiso   1.00
O3883  O     0.54459   0.03235   0.48530   0.01267  Uiso   1.00
O3884  O     0.57807   0.03363   0.48531   0.01267  Uiso   1.00
O3885  O     0.58653   0.53477   0.46797   0.01267  Uiso   1.00
O3886  O     0.53963   0.53603   0.46527   0.01267  Uiso   1.00
O3887  O     0.55523   0.53143   0.58424   0.01267  Uiso   1.00
O3888  O     0.52171   0.53284   0.58512   0.01267  Uiso   1.00
H3889  H     0.47836   0.61034   0.49640   0.01267  Uiso   1.00
H3890  H     0.51803   0.56025   0.48748   0.01267  Uiso   1.00
H3891  H     0.49611   0.60087   0.47473   0.01267  Uiso   1.00
H3892  H     0.47928   0.58796   0.53030   0.01267  Uiso   1.00
H3893  H     0.50054   0.54786   0.54554   0.01267  Uiso   1.00
H3894  H     0.52017   0.53368   0.52346   0.01267  Uiso   1.00
C3895  C     0.51084   0.55093   0.51750   0.01267  Uiso   1.00
C3896  C     0.50975   0.56565   0.49745   0.01267  Uiso   1.00
C3897  C     0.49783   0.58779   0.49009   0.01267  Uiso   1.00
C3898  C     0.48823   0.58054   0.52178   0.01267  Uiso   1.00
C3899  C     0.49996   0.55859   0.52983   0.01267  Uiso   1.00
N3900  N     0.48749   0.59435   0.50234   0.01267  Uiso   1.00
Si3901 Si    0.68561   0.84225   0.43009   0.01267  Uiso   1.00
Si3902 Si    0.66278   0.81360   0.46027   0.01267  Uiso   1.00
Si3903 Si    0.65583   0.84479   0.50339   0.01267  Uiso   1.00
Si3904 Si    0.62475   0.84618   0.50399   0.01267  Uiso   1.00
Si3905 Si    0.61407   0.81247   0.46182   0.01267  Uiso   1.00
Si3906 Si    0.63775   0.85034   0.43538   0.01267  Uiso   1.00
Si3907 Si    0.65332   0.61381   0.50670   0.01267  Uiso   1.00
Si3908 Si    0.62279   0.61254   0.50363   0.01267  Uiso   1.00
Si3909 Si    0.61342   0.65538   0.46086   0.01267  Uiso   1.00
Si3910 Si    0.63728   0.60581   0.43693   0.01267  Uiso   1.00
Si3911 Si    0.61616   0.72596   0.53282   0.01267  Uiso   1.00
Si3912 Si    0.63725   0.75636   0.56392   0.01267  Uiso   1.00
Si3913 Si    0.64379   0.72491   0.40809   0.01267  Uiso   1.00
Si3914 Si    0.67525   0.72020   0.40453   0.01267  Uiso   1.00
Si3915 Si    0.68454   0.75344   0.56158   0.01267  Uiso   1.00
Si3916 Si    0.66086   0.72720   0.53492   0.01267  Uiso   1.00
Si3917 Si    0.61539   0.95611   0.53338   0.01267  Uiso   1.00
Si3918 Si    0.63782   0.91458   0.56251   0.01267  Uiso   1.00
Si3919 Si    0.64574   0.95877   0.40524   0.01267  Uiso   1.00
Si3920 Si    0.67637   0.95824   0.40332   0.01267  Uiso   1.00
Si3921 Si    0.68589   0.91164   0.56112   0.01267  Uiso   1.00
Si3922 Si    0.66224   0.95289   0.53494   0.01267  Uiso   1.00
Si3923 Si    0.71519   0.33982   0.56571   0.01267  Uiso   1.00
Si3924 Si    0.73830   0.31154   0.53588   0.01267  Uiso   1.00
Si3925 Si    0.74378   0.34875   0.49231   0.01267  Uiso   1.00
Si3926 Si    0.77535   0.34962   0.49268   0.01267  Uiso   1.00
Si3927 Si    0.78542   0.31200   0.53485   0.01267  Uiso   1.00
Si3928 Si    0.76293   0.33679   0.56427   0.01267  Uiso   1.00
Si3929 Si    0.71525   0.11132   0.56325   0.01267  Uiso   1.00
Si3930 Si    0.73833   0.15455   0.53438   0.01267  Uiso   1.00
Si3931 Si    0.74591   0.10962   0.49171   0.01267  Uiso   1.00
Si3932 Si    0.77663   0.10913   0.49336   0.01267  Uiso   1.00
Si3933 Si    0.78622   0.15438   0.53533   0.01267  Uiso   1.00
Si3934 Si    0.76257   0.11429   0.56166   0.01267  Uiso   1.00
Si3935 Si    0.78502   0.22684   0.46654   0.01267  Uiso   1.00
Si3936 Si    0.76174   0.25522   0.43712   0.01267  Uiso   1.00
Si3937 Si    0.75600   0.21915   0.59322   0.01267  Uiso   1.00
Si3938 Si    0.72432   0.21829   0.59315   0.01267  Uiso   1.00
Si3939 Si    0.71441   0.25572   0.43571   0.01267  Uiso   1.00
Si3940 Si    0.73677   0.22759   0.46509   0.01267  Uiso   1.00
Si3941 Si    0.78450   0.45707   0.46266   0.01267  Uiso   1.00
Si3942 Si    0.76165   0.41398   0.43388   0.01267  Uiso   1.00
Si3943 Si    0.75388   0.45421   0.59068   0.01267  Uiso   1.00
Si3944 Si    0.72311   0.45652   0.59276   0.01267  Uiso   1.00
Si3945 Si    0.71366   0.41346   0.43542   0.01267  Uiso   1.00
Si3946 Si    0.73740   0.45749   0.46093   0.01267  Uiso   1.00
Si3947 Si    0.71403   0.72581   0.56664   0.01267  Uiso   1.00
Si3948 Si    0.73718   0.75373   0.53673   0.01267  Uiso   1.00
Si3949 Si    0.74407   0.72051   0.49376   0.01267  Uiso   1.00
Si3950 Si    0.77531   0.72011   0.49205   0.01267  Uiso   1.00
Si3951 Si    0.78627   0.75573   0.53380   0.01267  Uiso   1.00
Si3952 Si    0.76312   0.72372   0.56221   0.01267  Uiso   1.00
Si3953 Si    0.71522   0.95587   0.56240   0.01267  Uiso   1.00
Si3954 Si    0.73766   0.91329   0.53321   0.01267  Uiso   1.00
Si3955 Si    0.74614   0.95420   0.49068   0.01267  Uiso   1.00
Si3956 Si    0.77689   0.95655   0.49215   0.01267  Uiso   1.00
Si3957 Si    0.78641   0.91313   0.53451   0.01267  Uiso   1.00
Si3958 Si    0.76218   0.95772   0.55950   0.01267  Uiso   1.00
Si3959 Si    0.78425   0.84128   0.46354   0.01267  Uiso   1.00
Si3960 Si    0.76226   0.81123   0.43372   0.01267  Uiso   1.00
Si3961 Si    0.75608   0.84424   0.58947   0.01267  Uiso   1.00
Si3962 Si    0.72487   0.84689   0.59162   0.01267  Uiso   1.00
Si3963 Si    0.73824   0.83795   0.46343   0.01267  Uiso   1.00
Si3964 Si    0.78433   0.61201   0.46209   0.01267  Uiso   1.00
Si3965 Si    0.76208   0.65359   0.43289   0.01267  Uiso   1.00
Si3966 Si    0.75410   0.60952   0.58974   0.01267  Uiso   1.00
Si3967 Si    0.72355   0.60919   0.59246   0.01267  Uiso   1.00
Si3968 Si    0.73812   0.61528   0.46135   0.01267  Uiso   1.00
Si3969 Si    0.68470   0.22929   0.42975   0.01267  Uiso   1.00
Si3970 Si    0.66142   0.25959   0.45988   0.01267  Uiso   1.00
Si3971 Si    0.65630   0.21824   0.50313   0.01267  Uiso   1.00
Si3972 Si    0.62475   0.21795   0.50261   0.01267  Uiso   1.00
Si3973 Si    0.61461   0.25459   0.46060   0.01267  Uiso   1.00
Si3974 Si    0.63712   0.23048   0.43100   0.01267  Uiso   1.00
Si3975 Si    0.68454   0.45578   0.43236   0.01267  Uiso   1.00
Si3976 Si    0.65350   0.45921   0.50399   0.01267  Uiso   1.00
Si3977 Si    0.62292   0.45901   0.50175   0.01267  Uiso   1.00
Si3978 Si    0.61358   0.41176   0.45996   0.01267  Uiso   1.00
Si3979 Si    0.63687   0.45258   0.43284   0.01267  Uiso   1.00
Si3980 Si    0.61489   0.34132   0.52827   0.01267  Uiso   1.00
Si3981 Si    0.63816   0.31292   0.55752   0.01267  Uiso   1.00
Si3982 Si    0.64397   0.34608   0.40155   0.01267  Uiso   1.00
Si3983 Si    0.67565   0.34841   0.40181   0.01267  Uiso   1.00
Si3984 Si    0.68566   0.31349   0.55932   0.01267  Uiso   1.00
Si3985 Si    0.66326   0.34015   0.52998   0.01267  Uiso   1.00
Si3986 Si    0.61536   0.11047   0.53276   0.01267  Uiso   1.00
Si3987 Si    0.63812   0.15440   0.56122   0.01267  Uiso   1.00
Si3988 Si    0.64602   0.11509   0.40448   0.01267  Uiso   1.00
Si3989 Si    0.67662   0.11234   0.40309   0.01267  Uiso   1.00
Si3990 Si    0.68628   0.15524   0.56035   0.01267  Uiso   1.00
Si3991 Si    0.66256   0.10986   0.53460   0.01267  Uiso   1.00
Si3992 Si    0.71557   0.81298   0.43426   0.01267  Uiso   1.00
Si3993 Si    0.71464   0.65490   0.43477   0.01267  Uiso   1.00
Si3994 Si    0.68492   0.60995   0.43394   0.01267  Uiso   1.00
Si3995 Si    0.66110   0.41691   0.46129   0.01267  Uiso   1.00
Al3996 Al    0.66188   0.65046   0.46330   0.01267  Uiso   1.00
O3997  O     0.67568   0.84207   0.44861   0.01267  Uiso   1.00
O3998  O     0.66408   0.83937   0.48312   0.01267  Uiso   1.00
O3999  O     0.64020   0.84616   0.49845   0.01267  Uiso   1.00
O4000  O     0.61593   0.83841   0.48432   0.01267  Uiso   1.00
O4001  O     0.62378   0.85166   0.44697   0.01267  Uiso   1.00
O4002  O     0.64980   0.84927   0.45087   0.01267  Uiso   1.00
O4003  O     0.67596   0.61481   0.45315   0.01267  Uiso   1.00
O4004  O     0.66328   0.63255   0.48899   0.01267  Uiso   1.00
O4005  O     0.63821   0.63325   0.50155   0.01267  Uiso   1.00
O4006  O     0.61542   0.62562   0.48292   0.01267  Uiso   1.00
O4007  O     0.62216   0.61659   0.44471   0.01267  Uiso   1.00
O4008  O     0.64751   0.61507   0.45451   0.01267  Uiso   1.00
O4009  O     0.66188   0.73502   0.45882   0.01267  Uiso   1.00
O4010  O     0.61719   0.73364   0.46075   0.01267  Uiso   1.00
O4011  O     0.68473   0.91280   0.41843   0.01267  Uiso   1.00
O4012  O     0.68288   0.78221   0.41461   0.01267  Uiso   1.00
O4013  O     0.67939   0.65082   0.41488   0.01267  Uiso   1.00
O4014  O     0.63838   0.91857   0.42261   0.01267  Uiso   1.00
O4015  O     0.63810   0.78664   0.42078   0.01267  Uiso   1.00
O4016  O     0.63988   0.65518   0.41820   0.01267  Uiso   1.00
O4017  O     0.79895   0.82722   0.45552   0.01267  Uiso   1.00
O4018  O     0.79797   0.64633   0.45521   0.01267  Uiso   1.00
O4019  O     0.62556   0.71887   0.55202   0.01267  Uiso   1.00
O4020  O     0.63734   0.72780   0.58616   0.01267  Uiso   1.00
O4021  O     0.65961   0.73234   0.40610   0.01267  Uiso   1.00
O4022  O     0.67963   0.71593   0.58143   0.01267  Uiso   1.00
O4023  O     0.67601   0.72869   0.54268   0.01267  Uiso   1.00
O4024  O     0.65139   0.74236   0.55356   0.01267  Uiso   1.00
O4025  O     0.62602   0.95211   0.55107   0.01267  Uiso   1.00
O4026  O     0.63842   0.94513   0.58447   0.01267  Uiso   1.00
O4027  O     0.66103   0.93507   0.40364   0.01267  Uiso   1.00
O4028  O     0.68220   0.95145   0.58112   0.01267  Uiso   1.00
O4029  O     0.67706   0.93936   0.54299   0.01267  Uiso   1.00
O4030  O     0.65179   0.92743   0.55147   0.01267  Uiso   1.00
O4031  O     0.63463   0.83589   0.56351   0.01267  Uiso   1.00
O4032  O     0.68314   0.83306   0.56445   0.01267  Uiso   1.00
O4033  O     0.61592   0.65609   0.52092   0.01267  Uiso   1.00
O4034  O     0.62177   0.78484   0.51883   0.01267  Uiso   1.00
O4035  O     0.62075   0.91604   0.51426   0.01267  Uiso   1.00
O4036  O     0.65801   0.65269   0.52668   0.01267  Uiso   1.00
O4037  O     0.65889   0.78135   0.51755   0.01267  Uiso   1.00
O4038  O     0.66003   0.91306   0.51450   0.01267  Uiso   1.00
O4039  O     0.69966   0.73304   0.55658   0.01267  Uiso   1.00
O4040  O     0.70128   0.92362   0.55570   0.01267  Uiso   1.00
O4041  O     0.72644   0.34312   0.54879   0.01267  Uiso   1.00
O4042  O     0.73903   0.35220   0.51517   0.01267  Uiso   1.00
O4043  O     0.75958   0.33962   0.49095   0.01267  Uiso   1.00
O4044  O     0.77982   0.35087   0.51557   0.01267  Uiso   1.00
O4045  O     0.77737   0.33585   0.55425   0.01267  Uiso   1.00
O4046  O     0.75209   0.31933   0.54752   0.01267  Uiso   1.00
O4047  O     0.72649   0.12021   0.54655   0.01267  Uiso   1.00
O4048  O     0.73883   0.11954   0.51294   0.01267  Uiso   1.00
O4049  O     0.76126   0.13171   0.49339   0.01267  Uiso   1.00
O4050  O     0.78232   0.11284   0.51566   0.01267  Uiso   1.00
O4051  O     0.77740   0.12841   0.55378   0.01267  Uiso   1.00
O4052  O     0.75225   0.14438   0.54566   0.01267  Uiso   1.00
O4053  O     0.73551   0.23348   0.53177   0.01267  Uiso   1.00
O4054  O     0.78352   0.23273   0.53135   0.01267  Uiso   1.00
O4055  O     0.71502   0.41015   0.57746   0.01267  Uiso   1.00
O4056  O     0.71776   0.27968   0.58114   0.01267  Uiso   1.00
O4057  O     0.71978   0.14838   0.58345   0.01267  Uiso   1.00
O4058  O     0.76032   0.41021   0.57321   0.01267  Uiso   1.00
O4059  O     0.76246   0.28235   0.58192   0.01267  Uiso   1.00
O4060  O     0.76050   0.15012   0.58290   0.01267  Uiso   1.00
O4061  O     0.60072   0.33011   0.53871   0.01267  Uiso   1.00
O4062  O     0.60159   0.14229   0.54054   0.01267  Uiso   1.00
O4063  O     0.77397   0.22459   0.44934   0.01267  Uiso   1.00
O4064  O     0.76100   0.21841   0.41589   0.01267  Uiso   1.00
O4065  O     0.74013   0.22621   0.59221   0.01267  Uiso   1.00
O4066  O     0.71935   0.21892   0.41576   0.01267  Uiso   1.00
O4067  O     0.72256   0.22717   0.45440   0.01267  Uiso   1.00
O4068  O     0.74811   0.24252   0.44887   0.01267  Uiso   1.00
O4069  O     0.77359   0.45009   0.44532   0.01267  Uiso   1.00
O4070  O     0.76144   0.44091   0.41136   0.01267  Uiso   1.00
O4071  O     0.73846   0.43394   0.59315   0.01267  Uiso   1.00
O4072  O     0.71704   0.45039   0.41474   0.01267  Uiso   1.00
O4073  O     0.72247   0.44599   0.45302   0.01267  Uiso   1.00
O4074  O     0.74767   0.43158   0.44433   0.01267  Uiso   1.00
O4075  O     0.76385   0.33442   0.43412   0.01267  Uiso   1.00
O4076  O     0.71702   0.33506   0.43340   0.01267  Uiso   1.00
O4077  O     0.78481   0.15787   0.47889   0.01267  Uiso   1.00
O4078  O     0.78252   0.28864   0.48144   0.01267  Uiso   1.00
O4079  O     0.77949   0.41968   0.48260   0.01267  Uiso   1.00
O4080  O     0.73886   0.15540   0.47517   0.01267  Uiso   1.00
O4081  O     0.73683   0.28555   0.48179   0.01267  Uiso   1.00
O4082  O     0.73944   0.41786   0.48163   0.01267  Uiso   1.00
O4083  O     0.69902   0.24052   0.43968   0.01267  Uiso   1.00
O4084  O     0.69827   0.42423   0.44071   0.01267  Uiso   1.00
O4085  O     0.72502   0.72359   0.54934   0.01267  Uiso   1.00
O4086  O     0.73663   0.71987   0.51497   0.01267  Uiso   1.00
O4087  O     0.75978   0.72517   0.49735   0.01267  Uiso   1.00
O4088  O     0.78380   0.72323   0.51220   0.01267  Uiso   1.00
O4089  O     0.77680   0.72140   0.55008   0.01267  Uiso   1.00
O4090  O     0.75099   0.73498   0.54709   0.01267  Uiso   1.00
O4091  O     0.72551   0.94999   0.54416   0.01267  Uiso   1.00
O4092  O     0.73766   0.93537   0.51022   0.01267  Uiso   1.00
O4093  O     0.76150   0.93559   0.49460   0.01267  Uiso   1.00
O4094  O     0.78421   0.94762   0.51316   0.01267  Uiso   1.00
O4095  O     0.77691   0.94675   0.55094   0.01267  Uiso   1.00
O4096  O     0.75159   0.93487   0.54291   0.01267  Uiso   1.00
O4097  O     0.73574   0.83363   0.53513   0.01267  Uiso   1.00
O4098  O     0.78304   0.83463   0.53288   0.01267  Uiso   1.00
O4099  O     0.71433   0.65600   0.57878   0.01267  Uiso   1.00
O4100  O     0.71637   0.78737   0.58167   0.01267  Uiso   1.00
O4101  O     0.72092   0.91748   0.58172   0.01267  Uiso   1.00
O4102  O     0.76173   0.65241   0.57315   0.01267  Uiso   1.00
O4103  O     0.76354   0.78351   0.57833   0.01267  Uiso   1.00
O4104  O     0.76005   0.91483   0.57956   0.01267  Uiso   1.00
O4105  O     0.60138   0.74324   0.54019   0.01267  Uiso   1.00
O4106  O     0.60158   0.92438   0.54110   0.01267  Uiso   1.00
O4107  O     0.77457   0.84670   0.44457   0.01267  Uiso   1.00
O4108  O     0.76045   0.84616   0.41239   0.01267  Uiso   1.00
O4109  O     0.74032   0.83186   0.58769   0.01267  Uiso   1.00
O4110  O     0.72170   0.85033   0.41500   0.01267  Uiso   1.00
O4111  O     0.72374   0.83465   0.45374   0.01267  Uiso   1.00
O4112  O     0.74900   0.82034   0.44663   0.01267  Uiso   1.00
O4113  O     0.77406   0.61622   0.44383   0.01267  Uiso   1.00
O4114  O     0.76059   0.62156   0.41120   0.01267  Uiso   1.00
O4115  O     0.73875   0.63267   0.58997   0.01267  Uiso   1.00
O4116  O     0.71943   0.61365   0.41549   0.01267  Uiso   1.00
O4117  O     0.72328   0.63111   0.45378   0.01267  Uiso   1.00
O4118  O     0.74848   0.64207   0.44507   0.01267  Uiso   1.00
O4119  O     0.76507   0.73232   0.43113   0.01267  Uiso   1.00
O4120  O     0.71686   0.73334   0.43064   0.01267  Uiso   1.00
O4121  O     0.78393   0.91087   0.47559   0.01267  Uiso   1.00
O4122  O     0.77925   0.78135   0.47774   0.01267  Uiso   1.00
O4123  O     0.77822   0.64987   0.48123   0.01267  Uiso   1.00
O4124  O     0.74070   0.91203   0.47203   0.01267  Uiso   1.00
O4125  O     0.73910   0.78430   0.48128   0.01267  Uiso   1.00
O4126  O     0.74037   0.65177   0.48244   0.01267  Uiso   1.00
O4127  O     0.70054   0.83442   0.43818   0.01267  Uiso   1.00
O4128  O     0.69951   0.63868   0.43983   0.01267  Uiso   1.00
O4129  O     0.67376   0.23337   0.44700   0.01267  Uiso   1.00
O4130  O     0.66080   0.21641   0.48015   0.01267  Uiso   1.00
O4131  O     0.64049   0.22745   0.50473   0.01267  Uiso   1.00
O4132  O     0.62045   0.21506   0.47961   0.01267  Uiso   1.00
O4133  O     0.62267   0.23339   0.44098   0.01267  Uiso   1.00
O4134  O     0.64792   0.24988   0.44759   0.01267  Uiso   1.00
O4135  O     0.67360   0.44695   0.44951   0.01267  Uiso   1.00
O4136  O     0.66043   0.45456   0.48244   0.01267  Uiso   1.00
O4137  O     0.63824   0.43554   0.50246   0.01267  Uiso   1.00
O4138  O     0.61766   0.45520   0.47919   0.01267  Uiso   1.00
O4139  O     0.62228   0.43391   0.44107   0.01267  Uiso   1.00
O4140  O     0.64758   0.42840   0.44920   0.01267  Uiso   1.00
O4141  O     0.66321   0.33781   0.46505   0.01267  Uiso   1.00
O4142  O     0.61595   0.33371   0.46482   0.01267  Uiso   1.00
O4143  O     0.68434   0.15683   0.41931   0.01267  Uiso   1.00
O4144  O     0.68236   0.28576   0.41299   0.01267  Uiso   1.00
O4145  O     0.67996   0.41708   0.41246   0.01267  Uiso   1.00
O4146  O     0.63963   0.15614   0.42266   0.01267  Uiso   1.00
O4147  O     0.63772   0.28201   0.41263   0.01267  Uiso   1.00
O4148  O     0.63938   0.41390   0.41219   0.01267  Uiso   1.00
O4149  O     0.79939   0.23485   0.45660   0.01267  Uiso   1.00
O4150  O     0.79816   0.42453   0.45491   0.01267  Uiso   1.00
O4151  O     0.62617   0.34559   0.54509   0.01267  Uiso   1.00
O4152  O     0.63875   0.34782   0.57900   0.01267  Uiso   1.00
O4153  O     0.65987   0.33971   0.40217   0.01267  Uiso   1.00
O4154  O     0.68092   0.35101   0.57927   0.01267  Uiso   1.00
O4155  O     0.67750   0.34243   0.54069   0.01267  Uiso   1.00
O4156  O     0.65199   0.32609   0.54634   0.01267  Uiso   1.00
O4157  O     0.62616   0.11649   0.55024   0.01267  Uiso   1.00
O4158  O     0.63828   0.13126   0.58410   0.01267  Uiso   1.00
O4159  O     0.66137   0.13647   0.40178   0.01267  Uiso   1.00
O4160  O     0.68329   0.12100   0.58152   0.01267  Uiso   1.00
O4161  O     0.67729   0.12219   0.54317   0.01267  Uiso   1.00
O4162  O     0.65208   0.13608   0.55095   0.01267  Uiso   1.00
O4163  O     0.63569   0.23376   0.55968   0.01267  Uiso   1.00
O4164  O     0.68322   0.23424   0.56163   0.01267  Uiso   1.00
O4165  O     0.61439   0.41036   0.51590   0.01267  Uiso   1.00
O4166  O     0.61754   0.28017   0.51320   0.01267  Uiso   1.00
O4167  O     0.62031   0.14893   0.51301   0.01267  Uiso   1.00
O4168  O     0.66113   0.41167   0.51950   0.01267  Uiso   1.00
O4169  O     0.66335   0.28126   0.51366   0.01267  Uiso   1.00
O4170  O     0.66068   0.14952   0.51386   0.01267  Uiso   1.00
O4171  O     0.70106   0.32947   0.55516   0.01267  Uiso   1.00
O4172  O     0.70166   0.14318   0.55489   0.01267  Uiso   1.00
O4173  O     0.68671   0.53297   0.42673   0.01267  Uiso   1.00
O4174  O     0.63802   0.53056   0.42803   0.01267  Uiso   1.00
O4175  O     0.65457   0.53483   0.51211   0.01267  Uiso   1.00
O4176  O     0.62141   0.53464   0.50960   0.01267  Uiso   1.00
O4177  O     0.61327   0.03307   0.52711   0.01267  Uiso   1.00
O4178  O     0.66031   0.03147   0.53052   0.01267  Uiso   1.00
O4179  O     0.64491   0.03735   0.41008   0.01267  Uiso   1.00
O4180  O     0.67765   0.03542   0.40994   0.01267  Uiso   1.00
O4181  O     0.71330   0.03329   0.56819   0.01267  Uiso   1.00
O4182  O     0.76012   0.03549   0.56473   0.01267  Uiso   1.00
O4183  O     0.74459   0.03235   0.48530   0.01267  Uiso   1.00
O4184  O     0.77807   0.03363   0.48531   0.01267  Uiso   1.00
O4185  O     0.78653   0.53477   0.46797   0.01267  Uiso   1.00
O4186  O     0.73963   0.53603   0.46527   0.01267  Uiso   1.00
O4187  O     0.75523   0.53143   0.58424   0.01267  Uiso   1.00
O4188  O     0.72171   0.53284   0.58512   0.01267  Uiso   1.00
H4189  H     0.67836   0.61034   0.49640   0.01267  Uiso   1.00
H4190  H     0.71803   0.56025   0.48748   0.01267  Uiso   1.00
H4191  H     0.69611   0.60087   0.47473   0.01267  Uiso   1.00
H4192  H     0.67928   0.58796   0.53030   0.01267  Uiso   1.00
H4193  H     0.70054   0.54786   0.54554   0.01267  Uiso   1.00
H4194  H     0.72017   0.53368   0.52346   0.01267  Uiso   1.00
C4195  C     0.71084   0.55093   0.51750   0.01267  Uiso   1.00
C4196  C     0.70975   0.56565   0.49745   0.01267  Uiso   1.00
C4197  C     0.69783   0.58779   0.49009   0.01267  Uiso   1.00
C4198  C     0.68823   0.58054   0.52178   0.01267  Uiso   1.00
C4199  C     0.69996   0.55859   0.52983   0.01267  Uiso   1.00
N4200  N     0.68749   0.59435   0.50234   0.01267  Uiso   1.00
Si4201 Si    0.88561   0.84225   0.43009   0.01267  Uiso   1.00
Si4202 Si    0.86278   0.81360   0.46027   0.01267  Uiso   1.00
Si4203 Si    0.85583   0.84479   0.50339   0.01267  Uiso   1.00
Si4204 Si    0.82475   0.84618   0.50399   0.01267  Uiso   1.00
Si4205 Si    0.81407   0.81247   0.46182   0.01267  Uiso   1.00
Si4206 Si    0.83775   0.85034   0.43538   0.01267  Uiso   1.00
Si4207 Si    0.85332   0.61381   0.50670   0.01267  Uiso   1.00
Si4208 Si    0.82279   0.61254   0.50363   0.01267  Uiso   1.00
Si4209 Si    0.81342   0.65538   0.46086   0.01267  Uiso   1.00
Si4210 Si    0.83728   0.60581   0.43693   0.01267  Uiso   1.00
Si4211 Si    0.81616   0.72596   0.53282   0.01267  Uiso   1.00
Si4212 Si    0.83725   0.75636   0.56392   0.01267  Uiso   1.00
Si4213 Si    0.84379   0.72491   0.40809   0.01267  Uiso   1.00
Si4214 Si    0.87525   0.72020   0.40453   0.01267  Uiso   1.00
Si4215 Si    0.88454   0.75344   0.56158   0.01267  Uiso   1.00
Si4216 Si    0.86086   0.72720   0.53492   0.01267  Uiso   1.00
Si4217 Si    0.81539   0.95611   0.53338   0.01267  Uiso   1.00
Si4218 Si    0.83782   0.91458   0.56251   0.01267  Uiso   1.00
Si4219 Si    0.84574   0.95877   0.40524   0.01267  Uiso   1.00
Si4220 Si    0.87637   0.95824   0.40332   0.01267  Uiso   1.00
Si4221 Si    0.88589   0.91164   0.56112   0.01267  Uiso   1.00
Si4222 Si    0.86224   0.95289   0.53494   0.01267  Uiso   1.00
Si4223 Si    0.91519   0.33982   0.56571   0.01267  Uiso   1.00
Si4224 Si    0.93830   0.31154   0.53588   0.01267  Uiso   1.00
Si4225 Si    0.94378   0.34875   0.49231   0.01267  Uiso   1.00
Si4226 Si    0.97535   0.34962   0.49268   0.01267  Uiso   1.00
Si4227 Si    0.98542   0.31200   0.53485   0.01267  Uiso   1.00
Si4228 Si    0.96293   0.33679   0.56427   0.01267  Uiso   1.00
Si4229 Si    0.91525   0.11132   0.56325   0.01267  Uiso   1.00
Si4230 Si    0.93833   0.15455   0.53438   0.01267  Uiso   1.00
Si4231 Si    0.94591   0.10962   0.49171   0.01267  Uiso   1.00
Si4232 Si    0.97663   0.10913   0.49336   0.01267  Uiso   1.00
Si4233 Si    0.98622   0.15438   0.53533   0.01267  Uiso   1.00
Si4234 Si    0.96257   0.11429   0.56166   0.01267  Uiso   1.00
Si4235 Si    0.98502   0.22684   0.46654   0.01267  Uiso   1.00
Si4236 Si    0.96174   0.25522   0.43712   0.01267  Uiso   1.00
Si4237 Si    0.95600   0.21915   0.59322   0.01267  Uiso   1.00
Si4238 Si    0.92432   0.21829   0.59315   0.01267  Uiso   1.00
Si4239 Si    0.91441   0.25572   0.43571   0.01267  Uiso   1.00
Si4240 Si    0.93677   0.22759   0.46509   0.01267  Uiso   1.00
Si4241 Si    0.98450   0.45707   0.46266   0.01267  Uiso   1.00
Si4242 Si    0.96165   0.41398   0.43388   0.01267  Uiso   1.00
Si4243 Si    0.95388   0.45421   0.59068   0.01267  Uiso   1.00
Si4244 Si    0.92311   0.45652   0.59276   0.01267  Uiso   1.00
Si4245 Si    0.91366   0.41346   0.43542   0.01267  Uiso   1.00
Si4246 Si    0.93740   0.45749   0.46093   0.01267  Uiso   1.00
Si4247 Si    0.91403   0.72581   0.56664   0.01267  Uiso   1.00
Si4248 Si    0.93718   0.75373   0.53673   0.01267  Uiso   1.00
Si4249 Si    0.94407   0.72051   0.49376   0.01267  Uiso   1.00
Si4250 Si    0.97531   0.72011   0.49205   0.01267  Uiso   1.00
Si4251 Si    0.98627   0.75573   0.53380   0.01267  Uiso   1.00
Si4252 Si    0.96312   0.72372   0.56221   0.01267  Uiso   1.00
Si4253 Si    0.91522   0.95587   0.56240   0.01267  Uiso   1.00
Si4254 Si    0.93766   0.91329   0.53321   0.01267  Uiso   1.00
Si4255 Si    0.94614   0.95420   0.49068   0.01267  Uiso   1.00
Si4256 Si    0.97689   0.95655   0.49215   0.01267  Uiso   1.00
Si4257 Si    0.98641   0.91313   0.53451   0.01267  Uiso   1.00
Si4258 Si    0.96218   0.95772   0.55950   0.01267  Uiso   1.00
Si4259 Si    0.98425   0.84128   0.46354   0.01267  Uiso   1.00
Si4260 Si    0.96226   0.81123   0.43372   0.01267  Uiso   1.00
Si4261 Si    0.95608   0.84424   0.58947   0.01267  Uiso   1.00
Si4262 Si    0.92487   0.84689   0.59162   0.01267  Uiso   1.00
Si4263 Si    0.93824   0.83795   0.46343   0.01267  Uiso   1.00
Si4264 Si    0.98433   0.61201   0.46209   0.01267  Uiso   1.00
Si4265 Si    0.96208   0.65359   0.43289   0.01267  Uiso   1.00
Si4266 Si    0.95410   0.60952   0.58974   0.01267  Uiso   1.00
Si4267 Si    0.92355   0.60919   0.59246   0.01267  Uiso   1.00
Si4268 Si    0.93812   0.61528   0.46135   0.01267  Uiso   1.00
Si4269 Si    0.88470   0.22929   0.42975   0.01267  Uiso   1.00
Si4270 Si    0.86142   0.25959   0.45988   0.01267  Uiso   1.00
Si4271 Si    0.85630   0.21824   0.50313   0.01267  Uiso   1.00
Si4272 Si    0.82475   0.21795   0.50261   0.01267  Uiso   1.00
Si4273 Si    0.81461   0.25459   0.46060   0.01267  Uiso   1.00
Si4274 Si    0.83712   0.23048   0.43100   0.01267  Uiso   1.00
Si4275 Si    0.88454   0.45578   0.43236   0.01267  Uiso   1.00
Si4276 Si    0.85350   0.45921   0.50399   0.01267  Uiso   1.00
Si4277 Si    0.82292   0.45901   0.50175   0.01267  Uiso   1.00
Si4278 Si    0.81358   0.41176   0.45996   0.01267  Uiso   1.00
Si4279 Si    0.83687   0.45258   0.43284   0.01267  Uiso   1.00
Si4280 Si    0.81489   0.34132   0.52827   0.01267  Uiso   1.00
Si4281 Si    0.83816   0.31292   0.55752   0.01267  Uiso   1.00
Si4282 Si    0.84397   0.34608   0.40155   0.01267  Uiso   1.00
Si4283 Si    0.87565   0.34841   0.40181   0.01267  Uiso   1.00
Si4284 Si    0.88566   0.31349   0.55932   0.01267  Uiso   1.00
Si4285 Si    0.86326   0.34015   0.52998   0.01267  Uiso   1.00
Si4286 Si    0.81536   0.11047   0.53276   0.01267  Uiso   1.00
Si4287 Si    0.83812   0.15440   0.56122   0.01267  Uiso   1.00
Si4288 Si    0.84602   0.11509   0.40448   0.01267  Uiso   1.00
Si4289 Si    0.87662   0.11234   0.40309   0.01267  Uiso   1.00
Si4290 Si    0.88628   0.15524   0.56035   0.01267  Uiso   1.00
Si4291 Si    0.86256   0.10986   0.53460   0.01267  Uiso   1.00
Si4292 Si    0.91557   0.81298   0.43426   0.01267  Uiso   1.00
Si4293 Si    0.91464   0.65490   0.43477   0.01267  Uiso   1.00
Si4294 Si    0.88492   0.60995   0.43394   0.01267  Uiso   1.00
Si4295 Si    0.86110   0.41691   0.46129   0.01267  Uiso   1.00
Al4296 Al    0.86188   0.65046   0.46330   0.01267  Uiso   1.00
O4297  O     0.87568   0.84207   0.44861   0.01267  Uiso   1.00
O4298  O     0.86408   0.83937   0.48312   0.01267  Uiso   1.00
O4299  O     0.84020   0.84616   0.49845   0.01267  Uiso   1.00
O4300  O     0.81593   0.83841   0.48432   0.01267  Uiso   1.00
O4301  O     0.82378   0.85166   0.44697   0.01267  Uiso   1.00
O4302  O     0.84980   0.84927   0.45087   0.01267  Uiso   1.00
O4303  O     0.87596   0.61481   0.45315   0.01267  Uiso   1.00
O4304  O     0.86328   0.63255   0.48899   0.01267  Uiso   1.00
O4305  O     0.83821   0.63325   0.50155   0.01267  Uiso   1.00
O4306  O     0.81542   0.62562   0.48292   0.01267  Uiso   1.00
O4307  O     0.82216   0.61659   0.44471   0.01267  Uiso   1.00
O4308  O     0.84751   0.61507   0.45451   0.01267  Uiso   1.00
O4309  O     0.86188   0.73502   0.45882   0.01267  Uiso   1.00
O4310  O     0.81719   0.73364   0.46075   0.01267  Uiso   1.00
O4311  O     0.88473   0.91280   0.41843   0.01267  Uiso   1.00
O4312  O     0.88288   0.78221   0.41461   0.01267  Uiso   1.00
O4313  O     0.87939   0.65082   0.41488   0.01267  Uiso   1.00
O4314  O     0.83838   0.91857   0.42261   0.01267  Uiso   1.00
O4315  O     0.83810   0.78664   0.42078   0.01267  Uiso   1.00
O4316  O     0.83988   0.65518   0.41820   0.01267  Uiso   1.00
O4317  O     0.99895   0.82722   0.45552   0.01267  Uiso   1.00
O4318  O     0.99797   0.64633   0.45521   0.01267  Uiso   1.00
O4319  O     0.82556   0.71887   0.55202   0.01267  Uiso   1.00
O4320  O     0.83734   0.72780   0.58616   0.01267  Uiso   1.00
O4321  O     0.85961   0.73234   0.40610   0.01267  Uiso   1.00
O4322  O     0.87963   0.71593   0.58143   0.01267  Uiso   1.00
O4323  O     0.87601   0.72869   0.54268   0.01267  Uiso   1.00
O4324  O     0.85139   0.74236   0.55356   0.01267  Uiso   1.00
O4325  O     0.82602   0.95211   0.55107   0.01267  Uiso   1.00
O4326  O     0.83842   0.94513   0.58447   0.01267  Uiso   1.00
O4327  O     0.86103   0.93507   0.40364   0.01267  Uiso   1.00
O4328  O     0.88220   0.95145   0.58112   0.01267  Uiso   1.00
O4329  O     0.87706   0.93936   0.54299   0.01267  Uiso   1.00
O4330  O     0.85179   0.92743   0.55147   0.01267  Uiso   1.00
O4331  O     0.83463   0.83589   0.56351   0.01267  Uiso   1.00
O4332  O     0.88314   0.83306   0.56445   0.01267  Uiso   1.00
O4333  O     0.81592   0.65609   0.52092   0.01267  Uiso   1.00
O4334  O     0.82177   0.78484   0.51883   0.01267  Uiso   1.00
O4335  O     0.82075   0.91604   0.51426   0.01267  Uiso   1.00
O4336  O     0.85801   0.65269   0.52668   0.01267  Uiso   1.00
O4337  O     0.85889   0.78135   0.51755   0.01267  Uiso   1.00
O4338  O     0.86003   0.91306   0.51450   0.01267  Uiso   1.00
O4339  O     0.89966   0.73304   0.55658   0.01267  Uiso   1.00
O4340  O     0.90128   0.92362   0.55570   0.01267  Uiso   1.00
O4341  O     0.92644   0.34312   0.54879   0.01267  Uiso   1.00
O4342  O     0.93903   0.35220   0.51517   0.01267  Uiso   1.00
O4343  O     0.95958   0.33962   0.49095   0.01267  Uiso   1.00
O4344  O     0.97982   0.35087   0.51557   0.01267  Uiso   1.00
O4345  O     0.97737   0.33585   0.55425   0.01267  Uiso   1.00
O4346  O     0.95209   0.31933   0.54752   0.01267  Uiso   1.00
O4347  O     0.92649   0.12021   0.54655   0.01267  Uiso   1.00
O4348  O     0.93883   0.11954   0.51294   0.01267  Uiso   1.00
O4349  O     0.96126   0.13171   0.49339   0.01267  Uiso   1.00
O4350  O     0.98232   0.11284   0.51566   0.01267  Uiso   1.00
O4351  O     0.97740   0.12841   0.55378   0.01267  Uiso   1.00
O4352  O     0.95225   0.14438   0.54566   0.01267  Uiso   1.00
O4353  O     0.93551   0.23348   0.53177   0.01267  Uiso   1.00
O4354  O     0.98352   0.23273   0.53135   0.01267  Uiso   1.00
O4355  O     0.91502   0.41015   0.57746   0.01267  Uiso   1.00
O4356  O     0.91776   0.27968   0.58114   0.01267  Uiso   1.00
O4357  O     0.91978   0.14838   0.58345   0.01267  Uiso   1.00
O4358  O     0.96032   0.41021   0.57321   0.01267  Uiso   1.00
O4359  O     0.96246   0.28235   0.58192   0.01267  Uiso   1.00
O4360  O     0.96050   0.15012   0.58290   0.01267  Uiso   1.00
O4361  O     0.80072   0.33011   0.53871   0.01267  Uiso   1.00
O4362  O     0.80159   0.14229   0.54054   0.01267  Uiso   1.00
O4363  O     0.97397   0.22459   0.44934   0.01267  Uiso   1.00
O4364  O     0.96100   0.21841   0.41589   0.01267  Uiso   1.00
O4365  O     0.94013   0.22621   0.59221   0.01267  Uiso   1.00
O4366  O     0.91935   0.21892   0.41576   0.01267  Uiso   1.00
O4367  O     0.92256   0.22717   0.45440   0.01267  Uiso   1.00
O4368  O     0.94811   0.24252   0.44887   0.01267  Uiso   1.00
O4369  O     0.97359   0.45009   0.44532   0.01267  Uiso   1.00
O4370  O     0.96144   0.44091   0.41136   0.01267  Uiso   1.00
O4371  O     0.93846   0.43394   0.59315   0.01267  Uiso   1.00
O4372  O     0.91704   0.45039   0.41474   0.01267  Uiso   1.00
O4373  O     0.92247   0.44599   0.45302   0.01267  Uiso   1.00
O4374  O     0.94767   0.43158   0.44433   0.01267  Uiso   1.00
O4375  O     0.96385   0.33442   0.43412   0.01267  Uiso   1.00
O4376  O     0.91702   0.33506   0.43340   0.01267  Uiso   1.00
O4377  O     0.98481   0.15787   0.47889   0.01267  Uiso   1.00
O4378  O     0.98252   0.28864   0.48144   0.01267  Uiso   1.00
O4379  O     0.97949   0.41968   0.48260   0.01267  Uiso   1.00
O4380  O     0.93886   0.15540   0.47517   0.01267  Uiso   1.00
O4381  O     0.93683   0.28555   0.48179   0.01267  Uiso   1.00
O4382  O     0.93944   0.41786   0.48163   0.01267  Uiso   1.00
O4383  O     0.89902   0.24052   0.43968   0.01267  Uiso   1.00
O4384  O     0.89827   0.42423   0.44071   0.01267  Uiso   1.00
O4385  O     0.92502   0.72359   0.54934   0.01267  Uiso   1.00
O4386  O     0.93663   0.71987   0.51497   0.01267  Uiso   1.00
O4387  O     0.95978   0.72517   0.49735   0.01267  Uiso   1.00
O4388  O     0.98380   0.72323   0.51220   0.01267  Uiso   1.00
O4389  O     0.97680   0.72140   0.55008   0.01267  Uiso   1.00
O4390  O     0.95099   0.73498   0.54709   0.01267  Uiso   1.00
O4391  O     0.92551   0.94999   0.54416   0.01267  Uiso   1.00
O4392  O     0.93766   0.93537   0.51022   0.01267  Uiso   1.00
O4393  O     0.96150   0.93559   0.49460   0.01267  Uiso   1.00
O4394  O     0.98421   0.94762   0.51316   0.01267  Uiso   1.00
O4395  O     0.97691   0.94675   0.55094   0.01267  Uiso   1.00
O4396  O     0.95159   0.93487   0.54291   0.01267  Uiso   1.00
O4397  O     0.93574   0.83363   0.53513   0.01267  Uiso   1.00
O4398  O     0.98304   0.83463   0.53288   0.01267  Uiso   1.00
O4399  O     0.91433   0.65600   0.57878   0.01267  Uiso   1.00
O4400  O     0.91637   0.78737   0.58167   0.01267  Uiso   1.00
O4401  O     0.92092   0.91748   0.58172   0.01267  Uiso   1.00
O4402  O     0.96173   0.65241   0.57315   0.01267  Uiso   1.00
O4403  O     0.96354   0.78351   0.57833   0.01267  Uiso   1.00
O4404  O     0.96005   0.91483   0.57956   0.01267  Uiso   1.00
O4405  O     0.80138   0.74324   0.54019   0.01267  Uiso   1.00
O4406  O     0.80158   0.92438   0.54110   0.01267  Uiso   1.00
O4407  O     0.97457   0.84670   0.44457   0.01267  Uiso   1.00
O4408  O     0.96045   0.84616   0.41239   0.01267  Uiso   1.00
O4409  O     0.94032   0.83186   0.58769   0.01267  Uiso   1.00
O4410  O     0.92170   0.85033   0.41500   0.01267  Uiso   1.00
O4411  O     0.92374   0.83465   0.45374   0.01267  Uiso   1.00
O4412  O     0.94900   0.82034   0.44663   0.01267  Uiso   1.00
O4413  O     0.97406   0.61622   0.44383   0.01267  Uiso   1.00
O4414  O     0.96059   0.62156   0.41120   0.01267  Uiso   1.00
O4415  O     0.93875   0.63267   0.58997   0.01267  Uiso   1.00
O4416  O     0.91943   0.61365   0.41549   0.01267  Uiso   1.00
O4417  O     0.92328   0.63111   0.45378   0.01267  Uiso   1.00
O4418  O     0.94848   0.64207   0.44507   0.01267  Uiso   1.00
O4419  O     0.96507   0.73232   0.43113   0.01267  Uiso   1.00
O4420  O     0.91686   0.73334   0.43064   0.01267  Uiso   1.00
O4421  O     0.98393   0.91087   0.47559   0.01267  Uiso   1.00
O4422  O     0.97925   0.78135   0.47774   0.01267  Uiso   1.00
O4423  O     0.97822   0.64987   0.48123   0.01267  Uiso   1.00
O4424  O     0.94070   0.91203   0.47203   0.01267  Uiso   1.00
O4425  O     0.93910   0.78430   0.48128   0.01267  Uiso   1.00
O4426  O     0.94037   0.65177   0.48244   0.01267  Uiso   1.00
O4427  O     0.90054   0.83442   0.43818   0.01267  Uiso   1.00
O4428  O     0.89951   0.63868   0.43983   0.01267  Uiso   1.00
O4429  O     0.87376   0.23337   0.44700   0.01267  Uiso   1.00
O4430  O     0.86080   0.21641   0.48015   0.01267  Uiso   1.00
O4431  O     0.84049   0.22745   0.50473   0.01267  Uiso   1.00
O4432  O     0.82045   0.21506   0.47961   0.01267  Uiso   1.00
O4433  O     0.82267   0.23339   0.44098   0.01267  Uiso   1.00
O4434  O     0.84792   0.24988   0.44759   0.01267  Uiso   1.00
O4435  O     0.87360   0.44695   0.44951   0.01267  Uiso   1.00
O4436  O     0.86043   0.45456   0.48244   0.01267  Uiso   1.00
O4437  O     0.83824   0.43554   0.50246   0.01267  Uiso   1.00
O4438  O     0.81766   0.45520   0.47919   0.01267  Uiso   1.00
O4439  O     0.82228   0.43391   0.44107   0.01267  Uiso   1.00
O4440  O     0.84758   0.42840   0.44920   0.01267  Uiso   1.00
O4441  O     0.86321   0.33781   0.46505   0.01267  Uiso   1.00
O4442  O     0.81595   0.33371   0.46482   0.01267  Uiso   1.00
O4443  O     0.88434   0.15683   0.41931   0.01267  Uiso   1.00
O4444  O     0.88236   0.28576   0.41299   0.01267  Uiso   1.00
O4445  O     0.87996   0.41708   0.41246   0.01267  Uiso   1.00
O4446  O     0.83963   0.15614   0.42266   0.01267  Uiso   1.00
O4447  O     0.83772   0.28201   0.41263   0.01267  Uiso   1.00
O4448  O     0.83938   0.41390   0.41219   0.01267  Uiso   1.00
O4449  O     0.99939   0.23485   0.45660   0.01267  Uiso   1.00
O4450  O     0.99816   0.42453   0.45491   0.01267  Uiso   1.00
O4451  O     0.82617   0.34559   0.54509   0.01267  Uiso   1.00
O4452  O     0.83875   0.34782   0.57900   0.01267  Uiso   1.00
O4453  O     0.85987   0.33971   0.40217   0.01267  Uiso   1.00
O4454  O     0.88092   0.35101   0.57927   0.01267  Uiso   1.00
O4455  O     0.87750   0.34243   0.54069   0.01267  Uiso   1.00
O4456  O     0.85199   0.32609   0.54634   0.01267  Uiso   1.00
O4457  O     0.82616   0.11649   0.55024   0.01267  Uiso   1.00
O4458  O     0.83828   0.13126   0.58410   0.01267  Uiso   1.00
O4459  O     0.86137   0.13647   0.40178   0.01267  Uiso   1.00
O4460  O     0.88329   0.12100   0.58152   0.01267  Uiso   1.00
O4461  O     0.87729   0.12219   0.54317   0.01267  Uiso   1.00
O4462  O     0.85208   0.13608   0.55095   0.01267  Uiso   1.00
O4463  O     0.83569   0.23376   0.55968   0.01267  Uiso   1.00
O4464  O     0.88322   0.23424   0.56163   0.01267  Uiso   1.00
O4465  O     0.81439   0.41036   0.51590   0.01267  Uiso   1.00
O4466  O     0.81754   0.28017   0.51320   0.01267  Uiso   1.00
O4467  O     0.82031   0.14893   0.51301   0.01267  Uiso   1.00
O4468  O     0.86113   0.41167   0.51950   0.01267  Uiso   1.00
O4469  O     0.86335   0.28126   0.51366   0.01267  Uiso   1.00
O4470  O     0.86068   0.14952   0.51386   0.01267  Uiso   1.00
O4471  O     0.90106   0.32947   0.55516   0.01267  Uiso   1.00
O4472  O     0.90166   0.14318   0.55489   0.01267  Uiso   1.00
O4473  O     0.88671   0.53297   0.42673   0.01267  Uiso   1.00
O4474  O     0.83802   0.53056   0.42803   0.01267  Uiso   1.00
O4475  O     0.85457   0.53483   0.51211   0.01267  Uiso   1.00
O4476  O     0.82141   0.53464   0.50960   0.01267  Uiso   1.00
O4477  O     0.81327   0.03307   0.52711   0.01267  Uiso   1.00
O4478  O     0.86031   0.03147   0.53052   0.01267  Uiso   1.00
O4479  O     0.84491   0.03735   0.41008   0.01267  Uiso   1.00
O4480  O     0.87765   0.03542   0.40994   0.01267  Uiso   1.00
O4481  O     0.91330   0.03329   0.56819   0.01267  Uiso   1.00
O4482  O     0.96012   0.03549   0.56473   0.01267  Uiso   1.00
O4483  O     0.94459   0.03235   0.48530   0.01267  Uiso   1.00
O4484  O     0.97807   0.03363   0.48531   0.01267  Uiso   1.00
O4485  O     0.98653   0.53477   0.46797   0.01267  Uiso   1.00
O4486  O     0.93963   0.53603   0.46527   0.01267  Uiso   1.00
O4487  O     0.95523   0.53143   0.58424   0.01267  Uiso   1.00
O4488  O     0.92171   0.53284   0.58512   0.01267  Uiso   1.00
H4489  H     0.87836   0.61034   0.49640   0.01267  Uiso   1.00
H4490  H     0.91803   0.56025   0.48748   0.01267  Uiso   1.00
H4491  H     0.89611   0.60087   0.47473   0.01267  Uiso   1.00
H4492  H     0.87928   0.58796   0.53030   0.01267  Uiso   1.00
H4493  H     0.90054   0.54786   0.54554   0.01267  Uiso   1.00
H4494  H     0.92017   0.53368   0.52346   0.01267  Uiso   1.00
C4495  C     0.91084   0.55093   0.51750   0.01267  Uiso   1.00
C4496  C     0.90975   0.56565   0.49745   0.01267  Uiso   1.00
C4497  C     0.89783   0.58779   0.49009   0.01267  Uiso   1.00
C4498  C     0.88823   0.58054   0.52178   0.01267  Uiso   1.00
C4499  C     0.89996   0.55859   0.52983   0.01267  Uiso   1.00
N4500  N     0.88749   0.59435   0.50234   0.01267  Uiso   1.00
Si4501 Si    0.08561   0.84225   0.63009   0.01267  Uiso   1.00
Si4502 Si    0.06278   0.81360   0.66027   0.01267  Uiso   1.00
Si4503 Si    0.05583   0.84479   0.70339   0.01267  Uiso   1.00
Si4504 Si    0.02475   0.84618   0.70399   0.01267  Uiso   1.00
Si4505 Si    0.01407   0.81247   0.66182   0.01267  Uiso   1.00
Si4506 Si    0.03775   0.85034   0.63538   0.01267  Uiso   1.00
Si4507 Si    0.05332   0.61381   0.70670   0.01267  Uiso   1.00
Si4508 Si    0.02279   0.61254   0.70363   0.01267  Uiso   1.00
Si4509 Si    0.01342   0.65538   0.66086   0.01267  Uiso   1.00
Si4510 Si    0.03728   0.60581   0.63693   0.01267  Uiso   1.00
Si4511 Si    0.01616   0.72596   0.73282   0.01267  Uiso   1.00
Si4512 Si    0.03725   0.75636   0.76392   0.01267  Uiso   1.00
Si4513 Si    0.04379   0.72491   0.60809   0.01267  Uiso   1.00
Si4514 Si    0.07525   0.72020   0.60453   0.01267  Uiso   1.00
Si4515 Si    0.08454   0.75344   0.76158   0.01267  Uiso   1.00
Si4516 Si    0.06086   0.72720   0.73492   0.01267  Uiso   1.00
Si4517 Si    0.01539   0.95611   0.73338   0.01267  Uiso   1.00
Si4518 Si    0.03782   0.91458   0.76251   0.01267  Uiso   1.00
Si4519 Si    0.04574   0.95877   0.60524   0.01267  Uiso   1.00
Si4520 Si    0.07637   0.95824   0.60332   0.01267  Uiso   1.00
Si4521 Si    0.08589   0.91164   0.76112   0.01267  Uiso   1.00
Si4522 Si    0.06224   0.95289   0.73494   0.01267  Uiso   1.00
Si4523 Si    0.11519   0.33982   0.76571   0.01267  Uiso   1.00
Si4524 Si    0.13830   0.31154   0.73588   0.01267  Uiso   1.00
Si4525 Si    0.14378   0.34875   0.69231   0.01267  Uiso   1.00
Si4526 Si    0.17535   0.34962   0.69268   0.01267  Uiso   1.00
Si4527 Si    0.18542   0.31200   0.73485   0.01267  Uiso   1.00
Si4528 Si    0.16293   0.33679   0.76427   0.01267  Uiso   1.00
Si4529 Si    0.11525   0.11132   0.76325   0.01267  Uiso   1.00
Si4530 Si    0.13833   0.15455   0.73438   0.01267  Uiso   1.00
Si4531 Si    0.14591   0.10962   0.69171   0.01267  Uiso   1.00
Si4532 Si    0.17663   0.10913   0.69336   0.01267  Uiso   1.00
Si4533 Si    0.18622   0.15438   0.73533   0.01267  Uiso   1.00
Si4534 Si    0.16257   0.11429   0.76166   0.01267  Uiso   1.00
Si4535 Si    0.18502   0.22684   0.66654   0.01267  Uiso   1.00
Si4536 Si    0.16174   0.25522   0.63712   0.01267  Uiso   1.00
Si4537 Si    0.15600   0.21915   0.79322   0.01267  Uiso   1.00
Si4538 Si    0.12432   0.21829   0.79315   0.01267  Uiso   1.00
Si4539 Si    0.11441   0.25572   0.63571   0.01267  Uiso   1.00
Si4540 Si    0.13677   0.22759   0.66509   0.01267  Uiso   1.00
Si4541 Si    0.18450   0.45707   0.66266   0.01267  Uiso   1.00
Si4542 Si    0.16165   0.41398   0.63388   0.01267  Uiso   1.00
Si4543 Si    0.15388   0.45421   0.79068   0.01267  Uiso   1.00
Si4544 Si    0.12311   0.45652   0.79276   0.01267  Uiso   1.00
Si4545 Si    0.11366   0.41346   0.63542   0.01267  Uiso   1.00
Si4546 Si    0.13740   0.45749   0.66093   0.01267  Uiso   1.00
Si4547 Si    0.11403   0.72581   0.76664   0.01267  Uiso   1.00
Si4548 Si    0.13718   0.75373   0.73673   0.01267  Uiso   1.00
Si4549 Si    0.14407   0.72051   0.69376   0.01267  Uiso   1.00
Si4550 Si    0.17531   0.72011   0.69205   0.01267  Uiso   1.00
Si4551 Si    0.18627   0.75573   0.73380   0.01267  Uiso   1.00
Si4552 Si    0.16312   0.72372   0.76221   0.01267  Uiso   1.00
Si4553 Si    0.11522   0.95587   0.76240   0.01267  Uiso   1.00
Si4554 Si    0.13766   0.91329   0.73321   0.01267  Uiso   1.00
Si4555 Si    0.14614   0.95420   0.69068   0.01267  Uiso   1.00
Si4556 Si    0.17689   0.95655   0.69215   0.01267  Uiso   1.00
Si4557 Si    0.18641   0.91313   0.73451   0.01267  Uiso   1.00
Si4558 Si    0.16218   0.95772   0.75950   0.01267  Uiso   1.00
Si4559 Si    0.18425   0.84128   0.66354   0.01267  Uiso   1.00
Si4560 Si    0.16226   0.81123   0.63372   0.01267  Uiso   1.00
Si4561 Si    0.15608   0.84424   0.78947   0.01267  Uiso   1.00
Si4562 Si    0.12487   0.84689   0.79162   0.01267  Uiso   1.00
Si4563 Si    0.13824   0.83795   0.66343   0.01267  Uiso   1.00
Si4564 Si    0.18433   0.61201   0.66209   0.01267  Uiso   1.00
Si4565 Si    0.16208   0.65359   0.63289   0.01267  Uiso   1.00
Si4566 Si    0.15410   0.60952   0.78974   0.01267  Uiso   1.00
Si4567 Si    0.12355   0.60919   0.79246   0.01267  Uiso   1.00
Si4568 Si    0.13812   0.61528   0.66135   0.01267  Uiso   1.00
Si4569 Si    0.08470   0.22929   0.62975   0.01267  Uiso   1.00
Si4570 Si    0.06142   0.25959   0.65988   0.01267  Uiso   1.00
Si4571 Si    0.05630   0.21824   0.70313   0.01267  Uiso   1.00
Si4572 Si    0.02475   0.21795   0.70261   0.01267  Uiso   1.00
Si4573 Si    0.01461   0.25459   0.66060   0.01267  Uiso   1.00
Si4574 Si    0.03712   0.23048   0.63100   0.01267  Uiso   1.00
Si4575 Si    0.08454   0.45578   0.63236   0.01267  Uiso   1.00
Si4576 Si    0.05350   0.45921   0.70399   0.01267  Uiso   1.00
Si4577 Si    0.02292   0.45901   0.70175   0.01267  Uiso   1.00
Si4578 Si    0.01358   0.41176   0.65996   0.01267  Uiso   1.00
Si4579 Si    0.03687   0.45258   0.63284   0.01267  Uiso   1.00
Si4580 Si    0.01489   0.34132   0.72827   0.01267  Uiso   1.00
Si4581 Si    0.03816   0.31292   0.75752   0.01267  Uiso   1.00
Si4582 Si    0.04397   0.34608   0.60155   0.01267  Uiso   1.00
Si4583 Si    0.07565   0.34841   0.60181   0.01267  Uiso   1.00
Si4584 Si    0.08566   0.31349   0.75932   0.01267  Uiso   1.00
Si4585 Si    0.06326   0.34015   0.72998   0.01267  Uiso   1.00
Si4586 Si    0.01536   0.11047   0.73276   0.01267  Uiso   1.00
Si4587 Si    0.03812   0.15440   0.76122   0.01267  Uiso   1.00
Si4588 Si    0.04602   0.11509   0.60448   0.01267  Uiso   1.00
Si4589 Si    0.07662   0.11234   0.60309   0.01267  Uiso   1.00
Si4590 Si    0.08628   0.15524   0.76035   0.01267  Uiso   1.00
Si4591 Si    0.06256   0.10986   0.73460   0.01267  Uiso   1.00
Si4592 Si    0.11557   0.81298   0.63426   0.01267  Uiso   1.00
Si4593 Si    0.11464   0.65490   0.63477   0.01267  Uiso   1.00
Si4594 Si    0.08492   0.60995   0.63394   0.01267  Uiso   1.00
Si4595 Si    0.06110   0.41691   0.66129   0.01267  Uiso   1.00
Al4596 Al    0.06188   0.65046   0.66330   0.01267  Uiso   1.00
O4597  O     0.07568   0.84207   0.64861   0.01267  Uiso   1.00
O4598  O     0.06408   0.83937   0.68312   0.01267  Uiso   1.00
O4599  O     0.04020   0.84616   0.69845   0.01267  Uiso   1.00
O4600  O     0.01593   0.83841   0.68432   0.01267  Uiso   1.00
O4601  O     0.02378   0.85166   0.64697   0.01267  Uiso   1.00
O4602  O     0.04980   0.84927   0.65087   0.01267  Uiso   1.00
O4603  O     0.07596   0.61481   0.65315   0.01267  Uiso   1.00
O4604  O     0.06328   0.63255   0.68899   0.01267  Uiso   1.00
O4605  O     0.03821   0.63325   0.70155   0.01267  Uiso   1.00
O4606  O     0.01542   0.62562   0.68292   0.01267  Uiso   1.00
O4607  O     0.02216   0.61659   0.64471   0.01267  Uiso   1.00
O4608  O     0.04751   0.61507   0.65451   0.01267  Uiso   1.00
O4609  O     0.06188   0.73502   0.65882   0.01267  Uiso   1.00
O4610  O     0.01719   0.73364   0.66075   0.01267  Uiso   1.00
O4611  O     0.08473   0.91280   0.61843   0.01267  Uiso   1.00
O4612  O     0.08288   0.78221   0.61461   0.01267  Uiso   1.00
O4613  O     0.07939   0.65082   0.61488   0.01267  Uiso   1.00
O4614  O     0.03838   0.91857   0.62261   0.01267  Uiso   1.00
O4615  O     0.03810   0.78664   0.62078   0.01267  Uiso   1.00
O4616  O     0.03987   0.65518   0.61820   0.01267  Uiso   1.00
O4617  O     0.19895   0.82722   0.65552   0.01267  Uiso   1.00
O4618  O     0.19797   0.64633   0.65521   0.01267  Uiso   1.00
O4619  O     0.02556   0.71887   0.75202   0.01267  Uiso   1.00
O4620  O     0.03734   0.72780   0.78616   0.01267  Uiso   1.00
O4621  O     0.05961   0.73234   0.60610   0.01267  Uiso   1.00
O4622  O     0.07963   0.71593   0.78143   0.01267  Uiso   1.00
O4623  O     0.07601   0.72869   0.74268   0.01267  Uiso   1.00
O4624  O     0.05139   0.74236   0.75356   0.01267  Uiso   1.00
O4625  O     0.02602   0.95211   0.75107   0.01267  Uiso   1.00
O4626  O     0.03842   0.94513   0.78447   0.01267  Uiso   1.00
O4627  O     0.06103   0.93507   0.60364   0.01267  Uiso   1.00
O4628  O     0.08220   0.95145   0.78112   0.01267  Uiso   1.00
O4629  O     0.07706   0.93936   0.74299   0.01267  Uiso   1.00
O4630  O     0.05179   0.92743   0.75147   0.01267  Uiso   1.00
O4631  O     0.03463   0.83589   0.76351   0.01267  Uiso   1.00
O4632  O     0.08314   0.83306   0.76445   0.01267  Uiso   1.00
O4633  O     0.01592   0.65609   0.72092   0.01267  Uiso   1.00
O4634  O     0.02177   0.78484   0.71883   0.01267  Uiso   1.00
O4635  O     0.02075   0.91604   0.71426   0.01267  Uiso   1.00
O4636  O     0.05801   0.65269   0.72668   0.01267  Uiso   1.00
O4637  O     0.05889   0.78135   0.71755   0.01267  Uiso   1.00
O4638  O     0.06003   0.91306   0.71450   0.01267  Uiso   1.00
O4639  O     0.09966   0.73304   0.75658   0.01267  Uiso   1.00
O4640  O     0.10128   0.92362   0.75570   0.01267  Uiso   1.00
O4641  O     0.12644   0.34312   0.74879   0.01267  Uiso   1.00
O4642  O     0.13903   0.35220   0.71517   0.01267  Uiso   1.00
O4643  O     0.15958   0.33962   0.69095   0.01267  Uiso   1.00
O4644  O     0.17982   0.35087   0.71557   0.01267  Uiso   1.00
O4645  O     0.17737   0.33585   0.75425   0.01267  Uiso   1.00
O4646  O     0.15209   0.31933   0.74752   0.01267  Uiso   1.00
O4647  O     0.12649   0.12021   0.74655   0.01267  Uiso   1.00
O4648  O     0.13883   0.11954   0.71294   0.01267  Uiso   1.00
O4649  O     0.16126   0.13171   0.69339   0.01267  Uiso   1.00
O4650  O     0.18232   0.11284   0.71566   0.01267  Uiso   1.00
O4651  O     0.17740   0.12841   0.75378   0.01267  Uiso   1.00
O4652  O     0.15225   0.14438   0.74566   0.01267  Uiso   1.00
O4653  O     0.13551   0.23348   0.73177   0.01267  Uiso   1.00
O4654  O     0.18352   0.23273   0.73135   0.01267  Uiso   1.00
O4655  O     0.11502   0.41015   0.77746   0.01267  Uiso   1.00
O4656  O     0.11776   0.27968   0.78114   0.01267  Uiso   1.00
O4657  O     0.11978   0.14838   0.78345   0.01267  Uiso   1.00
O4658  O     0.16032   0.41021   0.77321   0.01267  Uiso   1.00
O4659  O     0.16246   0.28235   0.78192   0.01267  Uiso   1.00
O4660  O     0.16050   0.15012   0.78290   0.01267  Uiso   1.00
O4661  O     0.00072   0.33011   0.73871   0.01267  Uiso   1.00
O4662  O     0.00159   0.14229   0.74054   0.01267  Uiso   1.00
O4663  O     0.17397   0.22459   0.64934   0.01267  Uiso   1.00
O4664  O     0.16100   0.21841   0.61589   0.01267  Uiso   1.00
O4665  O     0.14013   0.22621   0.79221   0.01267  Uiso   1.00
O4666  O     0.11935   0.21892   0.61576   0.01267  Uiso   1.00
O4667  O     0.12256   0.22717   0.65440   0.01267  Uiso   1.00
O4668  O     0.14811   0.24252   0.64887   0.01267  Uiso   1.00
O4669  O     0.17359   0.45009   0.64532   0.01267  Uiso   1.00
O4670  O     0.16144   0.44091   0.61136   0.01267  Uiso   1.00
O4671  O     0.13846   0.43394   0.79315   0.01267  Uiso   1.00
O4672  O     0.11704   0.45039   0.61474   0.01267  Uiso   1.00
O4673  O     0.12247   0.44599   0.65302   0.01267  Uiso   1.00
O4674  O     0.14767   0.43158   0.64433   0.01267  Uiso   1.00
O4675  O     0.16385   0.33442   0.63412   0.01267  Uiso   1.00
O4676  O     0.11702   0.33506   0.63340   0.01267  Uiso   1.00
O4677  O     0.18481   0.15787   0.67889   0.01267  Uiso   1.00
O4678  O     0.18252   0.28864   0.68144   0.01267  Uiso   1.00
O4679  O     0.17949   0.41968   0.68260   0.01267  Uiso   1.00
O4680  O     0.13886   0.15540   0.67517   0.01267  Uiso   1.00
O4681  O     0.13683   0.28555   0.68179   0.01267  Uiso   1.00
O4682  O     0.13944   0.41786   0.68163   0.01267  Uiso   1.00
O4683  O     0.09902   0.24052   0.63968   0.01267  Uiso   1.00
O4684  O     0.09827   0.42423   0.64071   0.01267  Uiso   1.00
O4685  O     0.12502   0.72359   0.74934   0.01267  Uiso   1.00
O4686  O     0.13663   0.71987   0.71497   0.01267  Uiso   1.00
O4687  O     0.15978   0.72517   0.69735   0.01267  Uiso   1.00
O4688  O     0.18380   0.72323   0.71220   0.01267  Uiso   1.00
O4689  O     0.17680   0.72140   0.75008   0.01267  Uiso   1.00
O4690  O     0.15099   0.73498   0.74709   0.01267  Uiso   1.00
O4691  O     0.12551   0.94999   0.74416   0.01267  Uiso   1.00
O4692  O     0.13766   0.93537   0.71022   0.01267  Uiso   1.00
O4693  O     0.16150   0.93559   0.69460   0.01267  Uiso   1.00
O4694  O     0.18421   0.94762   0.71316   0.01267  Uiso   1.00
O4695  O     0.17691   0.94675   0.75094   0.01267  Uiso   1.00
O4696  O     0.15159   0.93487   0.74291   0.01267  Uiso   1.00
O4697  O     0.13574   0.83363   0.73513   0.01267  Uiso   1.00
O4698  O     0.18304   0.83463   0.73288   0.01267  Uiso   1.00
O4699  O     0.11433   0.65600   0.77878   0.01267  Uiso   1.00
O4700  O     0.11637   0.78737   0.78167   0.01267  Uiso   1.00
O4701  O     0.12092   0.91748   0.78172   0.01267  Uiso   1.00
O4702  O     0.16173   0.65241   0.77315   0.01267  Uiso   1.00
O4703  O     0.16354   0.78351   0.77833   0.01267  Uiso   1.00
O4704  O     0.16005   0.91483   0.77956   0.01267  Uiso   1.00
O4705  O     0.00138   0.74324   0.74019   0.01267  Uiso   1.00
O4706  O     0.00158   0.92438   0.74110   0.01267  Uiso   1.00
O4707  O     0.17457   0.84670   0.64457   0.01267  Uiso   1.00
O4708  O     0.16045   0.84616   0.61239   0.01267  Uiso   1.00
O4709  O     0.14032   0.83186   0.78769   0.01267  Uiso   1.00
O4710  O     0.12170   0.85033   0.61500   0.01267  Uiso   1.00
O4711  O     0.12374   0.83465   0.65374   0.01267  Uiso   1.00
O4712  O     0.14900   0.82034   0.64663   0.01267  Uiso   1.00
O4713  O     0.17406   0.61622   0.64383   0.01267  Uiso   1.00
O4714  O     0.16059   0.62156   0.61120   0.01267  Uiso   1.00
O4715  O     0.13875   0.63267   0.78997   0.01267  Uiso   1.00
O4716  O     0.11943   0.61365   0.61549   0.01267  Uiso   1.00
O4717  O     0.12328   0.63111   0.65378   0.01267  Uiso   1.00
O4718  O     0.14848   0.64207   0.64507   0.01267  Uiso   1.00
O4719  O     0.16507   0.73232   0.63113   0.01267  Uiso   1.00
O4720  O     0.11686   0.73334   0.63064   0.01267  Uiso   1.00
O4721  O     0.18393   0.91087   0.67559   0.01267  Uiso   1.00
O4722  O     0.17925   0.78135   0.67774   0.01267  Uiso   1.00
O4723  O     0.17822   0.64987   0.68123   0.01267  Uiso   1.00
O4724  O     0.14070   0.91203   0.67203   0.01267  Uiso   1.00
O4725  O     0.13910   0.78430   0.68128   0.01267  Uiso   1.00
O4726  O     0.14037   0.65177   0.68244   0.01267  Uiso   1.00
O4727  O     0.10054   0.83442   0.63819   0.01267  Uiso   1.00
O4728  O     0.09951   0.63868   0.63983   0.01267  Uiso   1.00
O4729  O     0.07376   0.23337   0.64700   0.01267  Uiso   1.00
O4730  O     0.06080   0.21641   0.68015   0.01267  Uiso   1.00
O4731  O     0.04049   0.22745   0.70473   0.01267  Uiso   1.00
O4732  O     0.02045   0.21506   0.67961   0.01267  Uiso   1.00
O4733  O     0.02267   0.23339   0.64098   0.01267  Uiso   1.00
O4734  O     0.04792   0.24988   0.64759   0.01267  Uiso   1.00
O4735  O     0.07360   0.44695   0.64951   0.01267  Uiso   1.00
O4736  O     0.06043   0.45456   0.68244   0.01267  Uiso   1.00
O4737  O     0.03824   0.43554   0.70246   0.01267  Uiso   1.00
O4738  O     0.01766   0.45520   0.67919   0.01267  Uiso   1.00
O4739  O     0.02228   0.43391   0.64107   0.01267  Uiso   1.00
O4740  O     0.04758   0.42840   0.64920   0.01267  Uiso   1.00
O4741  O     0.06321   0.33781   0.66505   0.01267  Uiso   1.00
O4742  O     0.01595   0.33371   0.66482   0.01267  Uiso   1.00
O4743  O     0.08434   0.15683   0.61931   0.01267  Uiso   1.00
O4744  O     0.08236   0.28576   0.61299   0.01267  Uiso   1.00
O4745  O     0.07996   0.41708   0.61246   0.01267  Uiso   1.00
O4746  O     0.03963   0.15614   0.62266   0.01267  Uiso   1.00
O4747  O     0.03772   0.28201   0.61263   0.01267  Uiso   1.00
O4748  O     0.03938   0.41390   0.61219   0.01267  Uiso   1.00
O4749  O     0.19939   0.23485   0.65660   0.01267  Uiso   1.00
O4750  O     0.19816   0.42453   0.65491   0.01267  Uiso   1.00
O4751  O     0.02617   0.34559   0.74509   0.01267  Uiso   1.00
O4752  O     0.03875   0.34782   0.77900   0.01267  Uiso   1.00
O4753  O     0.05987   0.33971   0.60217   0.01267  Uiso   1.00
O4754  O     0.08092   0.35101   0.77927   0.01267  Uiso   1.00
O4755  O     0.07750   0.34243   0.74069   0.01267  Uiso   1.00
O4756  O     0.05199   0.32609   0.74634   0.01267  Uiso   1.00
O4757  O     0.02616   0.11649   0.75024   0.01267  Uiso   1.00
O4758  O     0.03828   0.13126   0.78410   0.01267  Uiso   1.00
O4759  O     0.06137   0.13647   0.60178   0.01267  Uiso   1.00
O4760  O     0.08329   0.12100   0.78152   0.01267  Uiso   1.00
O4761  O     0.07729   0.12219   0.74317   0.01267  Uiso   1.00
O4762  O     0.05208   0.13608   0.75095   0.01267  Uiso   1.00
O4763  O     0.03569   0.23376   0.75968   0.01267  Uiso   1.00
O4764  O     0.08322   0.23424   0.76163   0.01267  Uiso   1.00
O4765  O     0.01439   0.41036   0.71590   0.01267  Uiso   1.00
O4766  O     0.01754   0.28017   0.71320   0.01267  Uiso   1.00
O4767  O     0.02031   0.14893   0.71301   0.01267  Uiso   1.00
O4768  O     0.06113   0.41167   0.71950   0.01267  Uiso   1.00
O4769  O     0.06335   0.28126   0.71366   0.01267  Uiso   1.00
O4770  O     0.06068   0.14952   0.71386   0.01267  Uiso   1.00
O4771  O     0.10106   0.32947   0.75516   0.01267  Uiso   1.00
O4772  O     0.10166   0.14318   0.75489   0.01267  Uiso   1.00
O4773  O     0.08671   0.53297   0.62673   0.01267  Uiso   1.00
O4774  O     0.03802   0.53056   0.62803   0.01267  Uiso   1.00
O4775  O     0.05457   0.53483   0.71211   0.01267  Uiso   1.00
O4776  O     0.02141   0.53464   0.70960   0.01267  Uiso   1.00
O4777  O     0.01327   0.03307   0.72711   0.01267  Uiso   1.00
O4778  O     0.06031   0.03147   0.73052   0.01267  Uiso   1.00
O4779  O     0.04491   0.03735   0.61008   0.01267  Uiso   1.00
O4780  O     0.07765   0.03542   0.60994   0.01267  Uiso   1.00
O4781  O     0.11330   0.03329   0.76819   0.01267  Uiso   1.00
O4782  O     0.16012   0.03549   0.76473   0.01267  Uiso   1.00
O4783  O     0.14459   0.03235   0.68530   0.01267  Uiso   1.00
O4784  O     0.17807   0.03363   0.68531   0.01267  Uiso   1.00
O4785  O     0.18653   0.53477   0.66797   0.01267  Uiso   1.00
O4786  O     0.13963   0.53603   0.66527   0.01267  Uiso   1.00
O4787  O     0.15523   0.53143   0.78424   0.01267  Uiso   1.00
O4788  O     0.12171   0.53284   0.78512   0.01267  Uiso   1.00
H4789  H     0.07836   0.61034   0.69640   0.01267  Uiso   1.00
H4790  H     0.11803   0.56025   0.68748   0.01267  Uiso   1.00
H4791  H     0.09611   0.60087   0.67473   0.01267  Uiso   1.00
H4792  H     0.07928   0.58796   0.73030   0.01267  Uiso   1.00
H4793  H     0.10054   0.54786   0.74554   0.01267  Uiso   1.00
H4794  H     0.12017   0.53368   0.72346   0.01267  Uiso   1.00
C4795  C     0.11084   0.55093   0.71750   0.01267  Uiso   1.00
C4796  C     0.10975   0.56565   0.69745   0.01267  Uiso   1.00
C4797  C     0.09783   0.58779   0.69009   0.01267  Uiso   1.00
C4798  C     0.08823   0.58054   0.72178   0.01267  Uiso   1.00
C4799  C     0.09996   0.55859   0.72983   0.01267  Uiso   1.00
N4800  N     0.08749   0.59435   0.70234   0.01267  Uiso   1.00
Si4801 Si    0.28561   0.84225   0.63009   0.01267  Uiso   1.00
Si4802 Si    0.26278   0.81360   0.66027   0.01267  Uiso   1.00
Si4803 Si    0.25583   0.84479   0.70339   0.01267  Uiso   1.00
Si4804 Si    0.22475   0.84618   0.70399   0.01267  Uiso   1.00
Si4805 Si    0.21407   0.81247   0.66182   0.01267  Uiso   1.00
Si4806 Si    0.23775   0.85034   0.63538   0.01267  Uiso   1.00
Si4807 Si    0.25332   0.61381   0.70670   0.01267  Uiso   1.00
Si4808 Si    0.22279   0.61254   0.70363   0.01267  Uiso   1.00
Si4809 Si    0.21342   0.65538   0.66086   0.01267  Uiso   1.00
Si4810 Si    0.23728   0.60581   0.63693   0.01267  Uiso   1.00
Si4811 Si    0.21616   0.72596   0.73282   0.01267  Uiso   1.00
Si4812 Si    0.23725   0.75636   0.76392   0.01267  Uiso   1.00
Si4813 Si    0.24379   0.72491   0.60809   0.01267  Uiso   1.00
Si4814 Si    0.27525   0.72020   0.60453   0.01267  Uiso   1.00
Si4815 Si    0.28454   0.75344   0.76158   0.01267  Uiso   1.00
Si4816 Si    0.26086   0.72720   0.73492   0.01267  Uiso   1.00
Si4817 Si    0.21539   0.95611   0.73338   0.01267  Uiso   1.00
Si4818 Si    0.23782   0.91458   0.76251   0.01267  Uiso   1.00
Si4819 Si    0.24574   0.95877   0.60524   0.01267  Uiso   1.00
Si4820 Si    0.27637   0.95824   0.60332   0.01267  Uiso   1.00
Si4821 Si    0.28589   0.91164   0.76112   0.01267  Uiso   1.00
Si4822 Si    0.26224   0.95289   0.73494   0.01267  Uiso   1.00
Si4823 Si    0.31519   0.33982   0.76571   0.01267  Uiso   1.00
Si4824 Si    0.33830   0.31154   0.73588   0.01267  Uiso   1.00
Si4825 Si    0.34378   0.34875   0.69231   0.01267  Uiso   1.00
Si4826 Si    0.37535   0.34962   0.69268   0.01267  Uiso   1.00
Si4827 Si    0.38542   0.31200   0.73485   0.01267  Uiso   1.00
Si4828 Si    0.36293   0.33679   0.76427   0.01267  Uiso   1.00
Si4829 Si    0.31525   0.11132   0.76325   0.01267  Uiso   1.00
Si4830 Si    0.33833   0.15455   0.73438   0.01267  Uiso   1.00
Si4831 Si    0.34591   0.10962   0.69171   0.01267  Uiso   1.00
Si4832 Si    0.37663   0.10913   0.69336   0.01267  Uiso   1.00
Si4833 Si    0.38622   0.15438   0.73533   0.01267  Uiso   1.00
Si4834 Si    0.36257   0.11429   0.76166   0.01267  Uiso   1.00
Si4835 Si    0.38502   0.22684   0.66654   0.01267  Uiso   1.00
Si4836 Si    0.36174   0.25522   0.63712   0.01267  Uiso   1.00
Si4837 Si    0.35600   0.21915   0.79322   0.01267  Uiso   1.00
Si4838 Si    0.32432   0.21829   0.79315   0.01267  Uiso   1.00
Si4839 Si    0.31441   0.25572   0.63571   0.01267  Uiso   1.00
Si4840 Si    0.33677   0.22759   0.66509   0.01267  Uiso   1.00
Si4841 Si    0.38450   0.45707   0.66266   0.01267  Uiso   1.00
Si4842 Si    0.36165   0.41398   0.63388   0.01267  Uiso   1.00
Si4843 Si    0.35388   0.45421   0.79068   0.01267  Uiso   1.00
Si4844 Si    0.32311   0.45652   0.79276   0.01267  Uiso   1.00
Si4845 Si    0.31366   0.41346   0.63542   0.01267  Uiso   1.00
Si4846 Si    0.33740   0.45749   0.66093   0.01267  Uiso   1.00
Si4847 Si    0.31403   0.72581   0.76664   0.01267  Uiso   1.00
Si4848 Si    0.33718   0.75373   0.73673   0.01267  Uiso   1.00
Si4849 Si    0.34407   0.72051   0.69376   0.01267  Uiso   1.00
Si4850 Si    0.37531   0.72011   0.69205   0.01267  Uiso   1.00
Si4851 Si    0.38627   0.75573   0.73380   0.01267  Uiso   1.00
Si4852 Si    0.36312   0.72372   0.76221   0.01267  Uiso   1.00
Si4853 Si    0.31522   0.95587   0.76240   0.01267  Uiso   1.00
Si4854 Si    0.33766   0.91329   0.73321   0.01267  Uiso   1.00
Si4855 Si    0.34614   0.95420   0.69068   0.01267  Uiso   1.00
Si4856 Si    0.37689   0.95655   0.69215   0.01267  Uiso   1.00
Si4857 Si    0.38641   0.91313   0.73451   0.01267  Uiso   1.00
Si4858 Si    0.36218   0.95772   0.75950   0.01267  Uiso   1.00
Si4859 Si    0.38425   0.84128   0.66354   0.01267  Uiso   1.00
Si4860 Si    0.36226   0.81123   0.63372   0.01267  Uiso   1.00
Si4861 Si    0.35608   0.84424   0.78947   0.01267  Uiso   1.00
Si4862 Si    0.32487   0.84689   0.79162   0.01267  Uiso   1.00
Si4863 Si    0.33824   0.83795   0.66343   0.01267  Uiso   1.00
Si4864 Si    0.38433   0.61201   0.66209   0.01267  Uiso   1.00
Si4865 Si    0.36208   0.65359   0.63289   0.01267  Uiso   1.00
Si4866 Si    0.35410   0.60952   0.78974   0.01267  Uiso   1.00
Si4867 Si    0.32355   0.60919   0.79246   0.01267  Uiso   1.00
Si4868 Si    0.33812   0.61528   0.66135   0.01267  Uiso   1.00
Si4869 Si    0.28470   0.22929   0.62975   0.01267  Uiso   1.00
Si4870 Si    0.26142   0.25959   0.65988   0.01267  Uiso   1.00
Si4871 Si    0.25630   0.21824   0.70313   0.01267  Uiso   1.00
Si4872 Si    0.22475   0.21795   0.70261   0.01267  Uiso   1.00
Si4873 Si    0.21461   0.25459   0.66060   0.01267  Uiso   1.00
Si4874 Si    0.23712   0.23048   0.63100   0.01267  Uiso   1.00
Si4875 Si    0.28454   0.45578   0.63236   0.01267  Uiso   1.00
Si4876 Si    0.25350   0.45921   0.70399   0.01267  Uiso   1.00
Si4877 Si    0.22292   0.45901   0.70175   0.01267  Uiso   1.00
Si4878 Si    0.21358   0.41176   0.65996   0.01267  Uiso   1.00
Si4879 Si    0.23687   0.45258   0.63284   0.01267  Uiso   1.00
Si4880 Si    0.21489   0.34132   0.72827   0.01267  Uiso   1.00
Si4881 Si    0.23816   0.31292   0.75752   0.01267  Uiso   1.00
Si4882 Si    0.24397   0.34608   0.60155   0.01267  Uiso   1.00
Si4883 Si    0.27565   0.34841   0.60181   0.01267  Uiso   1.00
Si4884 Si    0.28566   0.31349   0.75932   0.01267  Uiso   1.00
Si4885 Si    0.26326   0.34015   0.72998   0.01267  Uiso   1.00
Si4886 Si    0.21536   0.11047   0.73276   0.01267  Uiso   1.00
Si4887 Si    0.23812   0.15440   0.76122   0.01267  Uiso   1.00
Si4888 Si    0.24602   0.11509   0.60448   0.01267  Uiso   1.00
Si4889 Si    0.27662   0.11234   0.60309   0.01267  Uiso   1.00
Si4890 Si    0.28628   0.15524   0.76035   0.01267  Uiso   1.00
Si4891 Si    0.26256   0.10986   0.73460   0.01267  Uiso   1.00
Si4892 Si    0.31557   0.81298   0.63426   0.01267  Uiso   1.00
Si4893 Si    0.31464   0.65490   0.63477   0.01267  Uiso   1.00
Si4894 Si    0.28492   0.60995   0.63394   0.01267  Uiso   1.00
Si4895 Si    0.26110   0.41691   0.66129   0.01267  Uiso   1.00
Al4896 Al    0.26188   0.65046   0.66330   0.01267  Uiso   1.00
O4897  O     0.27568   0.84207   0.64861   0.01267  Uiso   1.00
O4898  O     0.26408   0.83937   0.68312   0.01267  Uiso   1.00
O4899  O     0.24020   0.84616   0.69845   0.01267  Uiso   1.00
O4900  O     0.21593   0.83841   0.68432   0.01267  Uiso   1.00
O4901  O     0.22378   0.85166   0.64697   0.01267  Uiso   1.00
O4902  O     0.24980   0.84927   0.65087   0.01267  Uiso   1.00
O4903  O     0.27596   0.61481   0.65315   0.01267  Uiso   1.00
O4904  O     0.26328   0.63255   0.68899   0.01267  Uiso   1.00
O4905  O     0.23821   0.63325   0.70155   0.01267  Uiso   1.00
O4906  O     0.21542   0.62562   0.68292   0.01267  Uiso   1.00
O4907  O     0.22216   0.61659   0.64471   0.01267  Uiso   1.00
O4908  O     0.24751   0.61507   0.65451   0.01267  Uiso   1.00
O4909  O     0.26188   0.73502   0.65882   0.01267  Uiso   1.00
O4910  O     0.21719   0.73364   0.66075   0.01267  Uiso   1.00
O4911  O     0.28473   0.91280   0.61843   0.01267  Uiso   1.00
O4912  O     0.28288   0.78221   0.61461   0.01267  Uiso   1.00
O4913  O     0.27939   0.65082   0.61488   0.01267  Uiso   1.00
O4914  O     0.23838   0.91857   0.62261   0.01267  Uiso   1.00
O4915  O     0.23810   0.78664   0.62078   0.01267  Uiso   1.00
O4916  O     0.23988   0.65518   0.61820   0.01267  Uiso   1.00
O4917  O     0.39895   0.82722   0.65552   0.01267  Uiso   1.00
O4918  O     0.39797   0.64633   0.65521   0.01267  Uiso   1.00
O4919  O     0.22556   0.71887   0.75202   0.01267  Uiso   1.00
O4920  O     0.23734   0.72780   0.78616   0.01267  Uiso   1.00
O4921  O     0.25961   0.73234   0.60610   0.01267  Uiso   1.00
O4922  O     0.27963   0.71593   0.78143   0.01267  Uiso   1.00
O4923  O     0.27601   0.72869   0.74268   0.01267  Uiso   1.00
O4924  O     0.25139   0.74236   0.75356   0.01267  Uiso   1.00
O4925  O     0.22602   0.95211   0.75107   0.01267  Uiso   1.00
O4926  O     0.23842   0.94513   0.78447   0.01267  Uiso   1.00
O4927  O     0.26103   0.93507   0.60364   0.01267  Uiso   1.00
O4928  O     0.28220   0.95145   0.78112   0.01267  Uiso   1.00
O4929  O     0.27706   0.93936   0.74299   0.01267  Uiso   1.00
O4930  O     0.25179   0.92743   0.75147   0.01267  Uiso   1.00
O4931  O     0.23463   0.83589   0.76351   0.01267  Uiso   1.00
O4932  O     0.28314   0.83306   0.76445   0.01267  Uiso   1.00
O4933  O     0.21592   0.65609   0.72092   0.01267  Uiso   1.00
O4934  O     0.22177   0.78484   0.71883   0.01267  Uiso   1.00
O4935  O     0.22075   0.91604   0.71426   0.01267  Uiso   1.00
O4936  O     0.25801   0.65269   0.72668   0.01267  Uiso   1.00
O4937  O     0.25889   0.78135   0.71755   0.01267  Uiso   1.00
O4938  O     0.26003   0.91306   0.71450   0.01267  Uiso   1.00
O4939  O     0.29966   0.73304   0.75658   0.01267  Uiso   1.00
O4940  O     0.30128   0.92362   0.75570   0.01267  Uiso   1.00
O4941  O     0.32644   0.34312   0.74879   0.01267  Uiso   1.00
O4942  O     0.33903   0.35220   0.71517   0.01267  Uiso   1.00
O4943  O     0.35958   0.33962   0.69095   0.01267  Uiso   1.00
O4944  O     0.37982   0.35087   0.71557   0.01267  Uiso   1.00
O4945  O     0.37737   0.33585   0.75425   0.01267  Uiso   1.00
O4946  O     0.35209   0.31933   0.74752   0.01267  Uiso   1.00
O4947  O     0.32649   0.12021   0.74655   0.01267  Uiso   1.00
O4948  O     0.33883   0.11954   0.71294   0.01267  Uiso   1.00
O4949  O     0.36126   0.13171   0.69339   0.01267  Uiso   1.00
O4950  O     0.38232   0.11284   0.71566   0.01267  Uiso   1.00
O4951  O     0.37740   0.12841   0.75378   0.01267  Uiso   1.00
O4952  O     0.35225   0.14438   0.74566   0.01267  Uiso   1.00
O4953  O     0.33551   0.23348   0.73177   0.01267  Uiso   1.00
O4954  O     0.38352   0.23273   0.73135   0.01267  Uiso   1.00
O4955  O     0.31502   0.41015   0.77746   0.01267  Uiso   1.00
O4956  O     0.31776   0.27968   0.78114   0.01267  Uiso   1.00
O4957  O     0.31978   0.14838   0.78345   0.01267  Uiso   1.00
O4958  O     0.36032   0.41021   0.77321   0.01267  Uiso   1.00
O4959  O     0.36246   0.28235   0.78192   0.01267  Uiso   1.00
O4960  O     0.36050   0.15012   0.78290   0.01267  Uiso   1.00
O4961  O     0.20072   0.33011   0.73871   0.01267  Uiso   1.00
O4962  O     0.20159   0.14229   0.74054   0.01267  Uiso   1.00
O4963  O     0.37397   0.22459   0.64934   0.01267  Uiso   1.00
O4964  O     0.36100   0.21841   0.61589   0.01267  Uiso   1.00
O4965  O     0.34013   0.22621   0.79221   0.01267  Uiso   1.00
O4966  O     0.31935   0.21892   0.61576   0.01267  Uiso   1.00
O4967  O     0.32256   0.22717   0.65440   0.01267  Uiso   1.00
O4968  O     0.34811   0.24252   0.64887   0.01267  Uiso   1.00
O4969  O     0.37359   0.45009   0.64532   0.01267  Uiso   1.00
O4970  O     0.36144   0.44091   0.61136   0.01267  Uiso   1.00
O4971  O     0.33846   0.43394   0.79315   0.01267  Uiso   1.00
O4972  O     0.31704   0.45039   0.61474   0.01267  Uiso   1.00
O4973  O     0.32247   0.44599   0.65302   0.01267  Uiso   1.00
O4974  O     0.34767   0.43158   0.64433   0.01267  Uiso   1.00
O4975  O     0.36385   0.33442   0.63412   0.01267  Uiso   1.00
O4976  O     0.31702   0.33506   0.63340   0.01267  Uiso   1.00
O4977  O     0.38481   0.15787   0.67889   0.01267  Uiso   1.00
O4978  O     0.38252   0.28864   0.68144   0.01267  Uiso   1.00
O4979  O     0.37949   0.41968   0.68260   0.01267  Uiso   1.00
O4980  O     0.33886   0.15540   0.67517   0.01267  Uiso   1.00
O4981  O     0.33683   0.28555   0.68179   0.01267  Uiso   1.00
O4982  O     0.33944   0.41786   0.68163   0.01267  Uiso   1.00
O4983  O     0.29902   0.24052   0.63968   0.01267  Uiso   1.00
O4984  O     0.29827   0.42423   0.64071   0.01267  Uiso   1.00
O4985  O     0.32502   0.72359   0.74934   0.01267  Uiso   1.00
O4986  O     0.33663   0.71987   0.71497   0.01267  Uiso   1.00
O4987  O     0.35978   0.72517   0.69735   0.01267  Uiso   1.00
O4988  O     0.38380   0.72323   0.71220   0.01267  Uiso   1.00
O4989  O     0.37680   0.72140   0.75008   0.01267  Uiso   1.00
O4990  O     0.35099   0.73498   0.74709   0.01267  Uiso   1.00
O4991  O     0.32551   0.94999   0.74416   0.01267  Uiso   1.00
O4992  O     0.33766   0.93537   0.71022   0.01267  Uiso   1.00
O4993  O     0.36150   0.93559   0.69460   0.01267  Uiso   1.00
O4994  O     0.38421   0.94762   0.71316   0.01267  Uiso   1.00
O4995  O     0.37691   0.94675   0.75094   0.01267  Uiso   1.00
O4996  O     0.35159   0.93487   0.74291   0.01267  Uiso   1.00
O4997  O     0.33574   0.83363   0.73513   0.01267  Uiso   1.00
O4998  O     0.38304   0.83463   0.73288   0.01267  Uiso   1.00
O4999  O     0.31433   0.65600   0.77878   0.01267  Uiso   1.00
O5000  O     0.31637   0.78737   0.78167   0.01267  Uiso   1.00
O5001  O     0.32092   0.91748   0.78172   0.01267  Uiso   1.00
O5002  O     0.36173   0.65241   0.77315   0.01267  Uiso   1.00
O5003  O     0.36354   0.78351   0.77833   0.01267  Uiso   1.00
O5004  O     0.36005   0.91483   0.77956   0.01267  Uiso   1.00
O5005  O     0.20138   0.74324   0.74019   0.01267  Uiso   1.00
O5006  O     0.20158   0.92438   0.74110   0.01267  Uiso   1.00
O5007  O     0.37457   0.84670   0.64457   0.01267  Uiso   1.00
O5008  O     0.36045   0.84616   0.61239   0.01267  Uiso   1.00
O5009  O     0.34032   0.83186   0.78769   0.01267  Uiso   1.00
O5010  O     0.32170   0.85033   0.61500   0.01267  Uiso   1.00
O5011  O     0.32374   0.83465   0.65374   0.01267  Uiso   1.00
O5012  O     0.34900   0.82034   0.64663   0.01267  Uiso   1.00
O5013  O     0.37406   0.61622   0.64383   0.01267  Uiso   1.00
O5014  O     0.36059   0.62156   0.61120   0.01267  Uiso   1.00
O5015  O     0.33875   0.63267   0.78997   0.01267  Uiso   1.00
O5016  O     0.31943   0.61365   0.61549   0.01267  Uiso   1.00
O5017  O     0.32328   0.63111   0.65378   0.01267  Uiso   1.00
O5018  O     0.34848   0.64207   0.64507   0.01267  Uiso   1.00
O5019  O     0.36507   0.73232   0.63113   0.01267  Uiso   1.00
O5020  O     0.31686   0.73334   0.63064   0.01267  Uiso   1.00
O5021  O     0.38393   0.91087   0.67559   0.01267  Uiso   1.00
O5022  O     0.37925   0.78135   0.67774   0.01267  Uiso   1.00
O5023  O     0.37822   0.64987   0.68123   0.01267  Uiso   1.00
O5024  O     0.34070   0.91203   0.67203   0.01267  Uiso   1.00
O5025  O     0.33910   0.78430   0.68128   0.01267  Uiso   1.00
O5026  O     0.34037   0.65177   0.68244   0.01267  Uiso   1.00
O5027  O     0.30054   0.83442   0.63819   0.01267  Uiso   1.00
O5028  O     0.29951   0.63868   0.63983   0.01267  Uiso   1.00
O5029  O     0.27376   0.23337   0.64700   0.01267  Uiso   1.00
O5030  O     0.26080   0.21641   0.68015   0.01267  Uiso   1.00
O5031  O     0.24049   0.22745   0.70473   0.01267  Uiso   1.00
O5032  O     0.22045   0.21506   0.67961   0.01267  Uiso   1.00
O5033  O     0.22267   0.23339   0.64098   0.01267  Uiso   1.00
O5034  O     0.24792   0.24988   0.64759   0.01267  Uiso   1.00
O5035  O     0.27360   0.44695   0.64951   0.01267  Uiso   1.00
O5036  O     0.26043   0.45456   0.68244   0.01267  Uiso   1.00
O5037  O     0.23824   0.43554   0.70246   0.01267  Uiso   1.00
O5038  O     0.21766   0.45520   0.67919   0.01267  Uiso   1.00
O5039  O     0.22228   0.43391   0.64107   0.01267  Uiso   1.00
O5040  O     0.24758   0.42840   0.64920   0.01267  Uiso   1.00
O5041  O     0.26321   0.33781   0.66505   0.01267  Uiso   1.00
O5042  O     0.21595   0.33371   0.66482   0.01267  Uiso   1.00
O5043  O     0.28434   0.15683   0.61931   0.01267  Uiso   1.00
O5044  O     0.28236   0.28576   0.61299   0.01267  Uiso   1.00
O5045  O     0.27996   0.41708   0.61246   0.01267  Uiso   1.00
O5046  O     0.23963   0.15614   0.62266   0.01267  Uiso   1.00
O5047  O     0.23772   0.28201   0.61263   0.01267  Uiso   1.00
O5048  O     0.23938   0.41390   0.61219   0.01267  Uiso   1.00
O5049  O     0.39939   0.23485   0.65660   0.01267  Uiso   1.00
O5050  O     0.39816   0.42453   0.65491   0.01267  Uiso   1.00
O5051  O     0.22617   0.34559   0.74509   0.01267  Uiso   1.00
O5052  O     0.23875   0.34782   0.77900   0.01267  Uiso   1.00
O5053  O     0.25987   0.33971   0.60217   0.01267  Uiso   1.00
O5054  O     0.28092   0.35101   0.77927   0.01267  Uiso   1.00
O5055  O     0.27750   0.34243   0.74069   0.01267  Uiso   1.00
O5056  O     0.25199   0.32609   0.74634   0.01267  Uiso   1.00
O5057  O     0.22616   0.11649   0.75024   0.01267  Uiso   1.00
O5058  O     0.23828   0.13126   0.78410   0.01267  Uiso   1.00
O5059  O     0.26137   0.13647   0.60178   0.01267  Uiso   1.00
O5060  O     0.28329   0.12100   0.78152   0.01267  Uiso   1.00
O5061  O     0.27729   0.12219   0.74317   0.01267  Uiso   1.00
O5062  O     0.25208   0.13608   0.75095   0.01267  Uiso   1.00
O5063  O     0.23569   0.23376   0.75968   0.01267  Uiso   1.00
O5064  O     0.28322   0.23424   0.76163   0.01267  Uiso   1.00
O5065  O     0.21439   0.41036   0.71590   0.01267  Uiso   1.00
O5066  O     0.21754   0.28017   0.71320   0.01267  Uiso   1.00
O5067  O     0.22031   0.14893   0.71301   0.01267  Uiso   1.00
O5068  O     0.26113   0.41167   0.71950   0.01267  Uiso   1.00
O5069  O     0.26335   0.28126   0.71366   0.01267  Uiso   1.00
O5070  O     0.26068   0.14952   0.71386   0.01267  Uiso   1.00
O5071  O     0.30106   0.32947   0.75516   0.01267  Uiso   1.00
O5072  O     0.30166   0.14318   0.75489   0.01267  Uiso   1.00
O5073  O     0.28671   0.53297   0.62673   0.01267  Uiso   1.00
O5074  O     0.23802   0.53056   0.62803   0.01267  Uiso   1.00
O5075  O     0.25457   0.53483   0.71211   0.01267  Uiso   1.00
O5076  O     0.22141   0.53464   0.70960   0.01267  Uiso   1.00
O5077  O     0.21327   0.03307   0.72711   0.01267  Uiso   1.00
O5078  O     0.26031   0.03147   0.73052   0.01267  Uiso   1.00
O5079  O     0.24491   0.03735   0.61008   0.01267  Uiso   1.00
O5080  O     0.27765   0.03542   0.60994   0.01267  Uiso   1.00
O5081  O     0.31330   0.03329   0.76819   0.01267  Uiso   1.00
O5082  O     0.36012   0.03549   0.76473   0.01267  Uiso   1.00
O5083  O     0.34459   0.03235   0.68530   0.01267  Uiso   1.00
O5084  O     0.37807   0.03363   0.68531   0.01267  Uiso   1.00
O5085  O     0.38653   0.53477   0.66797   0.01267  Uiso   1.00
O5086  O     0.33963   0.53603   0.66527   0.01267  Uiso   1.00
O5087  O     0.35523   0.53143   0.78424   0.01267  Uiso   1.00
O5088  O     0.32171   0.53284   0.78512   0.01267  Uiso   1.00
H5089  H     0.27836   0.61034   0.69640   0.01267  Uiso   1.00
H5090  H     0.31803   0.56025   0.68748   0.01267  Uiso   1.00
H5091  H     0.29611   0.60087   0.67473   0.01267  Uiso   1.00
H5092  H     0.27928   0.58796   0.73030   0.01267  Uiso   1.00
H5093  H     0.30054   0.54786   0.74554   0.01267  Uiso   1.00
H5094  H     0.32017   0.53368   0.72346   0.01267  Uiso   1.00
C5095  C     0.31084   0.55093   0.71750   0.01267  Uiso   1.00
C5096  C     0.30975   0.56565   0.69745   0.01267  Uiso   1.00
C5097  C     0.29783   0.58779   0.69009   0.01267  Uiso   1.00
C5098  C     0.28823   0.58054   0.72178   0.01267  Uiso   1.00
C5099  C     0.29996   0.55859   0.72983   0.01267  Uiso   1.00
N5100  N     0.28749   0.59435   0.70234   0.01267  Uiso   1.00
Si5101 Si    0.48561   0.84225   0.63009   0.01267  Uiso   1.00
Si5102 Si    0.46278   0.81360   0.66027   0.01267  Uiso   1.00
Si5103 Si    0.45583   0.84479   0.70339   0.01267  Uiso   1.00
Si5104 Si    0.42475   0.84618   0.70399   0.01267  Uiso   1.00
Si5105 Si    0.41407   0.81247   0.66182   0.01267  Uiso   1.00
Si5106 Si    0.43775   0.85034   0.63538   0.01267  Uiso   1.00
Si5107 Si    0.45332   0.61381   0.70670   0.01267  Uiso   1.00
Si5108 Si    0.42279   0.61254   0.70363   0.01267  Uiso   1.00
Si5109 Si    0.41342   0.65538   0.66086   0.01267  Uiso   1.00
Si5110 Si    0.43728   0.60581   0.63693   0.01267  Uiso   1.00
Si5111 Si    0.41616   0.72596   0.73282   0.01267  Uiso   1.00
Si5112 Si    0.43725   0.75636   0.76392   0.01267  Uiso   1.00
Si5113 Si    0.44379   0.72491   0.60809   0.01267  Uiso   1.00
Si5114 Si    0.47525   0.72020   0.60453   0.01267  Uiso   1.00
Si5115 Si    0.48454   0.75344   0.76158   0.01267  Uiso   1.00
Si5116 Si    0.46086   0.72720   0.73492   0.01267  Uiso   1.00
Si5117 Si    0.41539   0.95611   0.73338   0.01267  Uiso   1.00
Si5118 Si    0.43782   0.91458   0.76251   0.01267  Uiso   1.00
Si5119 Si    0.44574   0.95877   0.60524   0.01267  Uiso   1.00
Si5120 Si    0.47637   0.95824   0.60332   0.01267  Uiso   1.00
Si5121 Si    0.48589   0.91164   0.76112   0.01267  Uiso   1.00
Si5122 Si    0.46224   0.95289   0.73494   0.01267  Uiso   1.00
Si5123 Si    0.51519   0.33982   0.76571   0.01267  Uiso   1.00
Si5124 Si    0.53830   0.31154   0.73588   0.01267  Uiso   1.00
Si5125 Si    0.54378   0.34875   0.69231   0.01267  Uiso   1.00
Si5126 Si    0.57535   0.34962   0.69268   0.01267  Uiso   1.00
Si5127 Si    0.58542   0.31200   0.73485   0.01267  Uiso   1.00
Si5128 Si    0.56293   0.33679   0.76427   0.01267  Uiso   1.00
Si5129 Si    0.51525   0.11132   0.76325   0.01267  Uiso   1.00
Si5130 Si    0.53833   0.15455   0.73438   0.01267  Uiso   1.00
Si5131 Si    0.54591   0.10962   0.69171   0.01267  Uiso   1.00
Si5132 Si    0.57663   0.10913   0.69336   0.01267  Uiso   1.00
Si5133 Si    0.58622   0.15438   0.73533   0.01267  Uiso   1.00
Si5134 Si    0.56257   0.11429   0.76166   0.01267  Uiso   1.00
Si5135 Si    0.58502   0.22684   0.66654   0.01267  Uiso   1.00
Si5136 Si    0.56174   0.25522   0.63712   0.01267  Uiso   1.00
Si5137 Si    0.55600   0.21915   0.79322   0.01267  Uiso   1.00
Si5138 Si    0.52432   0.21829   0.79315   0.01267  Uiso   1.00
Si5139 Si    0.51441   0.25572   0.63571   0.01267  Uiso   1.00
Si5140 Si    0.53677   0.22759   0.66509   0.01267  Uiso   1.00
Si5141 Si    0.58450   0.45707   0.66266   0.01267  Uiso   1.00
Si5142 Si    0.56165   0.41398   0.63388   0.01267  Uiso   1.00
Si5143 Si    0.55388   0.45421   0.79068   0.01267  Uiso   1.00
Si5144 Si    0.52311   0.45652   0.79276   0.01267  Uiso   1.00
Si5145 Si    0.51366   0.41346   0.63542   0.01267  Uiso   1.00
Si5146 Si    0.53740   0.45749   0.66093   0.01267  Uiso   1.00
Si5147 Si    0.51403   0.72581   0.76664   0.01267  Uiso   1.00
Si5148 Si    0.53718   0.75373   0.73673   0.01267  Uiso   1.00
Si5149 Si    0.54407   0.72051   0.69376   0.01267  Uiso   1.00
Si5150 Si    0.57531   0.72011   0.69205   0.01267  Uiso   1.00
Si5151 Si    0.58627   0.75573   0.73380   0.01267  Uiso   1.00
Si5152 Si    0.56312   0.72372   0.76221   0.01267  Uiso   1.00
Si5153 Si    0.51522   0.95587   0.76240   0.01267  Uiso   1.00
Si5154 Si    0.53766   0.91329   0.73321   0.01267  Uiso   1.00
Si5155 Si    0.54614   0.95420   0.69068   0.01267  Uiso   1.00
Si5156 Si    0.57689   0.95655   0.69215   0.01267  Uiso   1.00
Si5157 Si    0.58641   0.91313   0.73451   0.01267  Uiso   1.00
Si5158 Si    0.56218   0.95772   0.75950   0.01267  Uiso   1.00
Si5159 Si    0.58425   0.84128   0.66354   0.01267  Uiso   1.00
Si5160 Si    0.56226   0.81123   0.63372   0.01267  Uiso   1.00
Si5161 Si    0.55608   0.84424   0.78947   0.01267  Uiso   1.00
Si5162 Si    0.52487   0.84689   0.79162   0.01267  Uiso   1.00
Si5163 Si    0.53824   0.83795   0.66343   0.01267  Uiso   1.00
Si5164 Si    0.58433   0.61201   0.66209   0.01267  Uiso   1.00
Si5165 Si    0.56208   0.65359   0.63289   0.01267  Uiso   1.00
Si5166 Si    0.55410   0.60952   0.78974   0.01267  Uiso   1.00
Si5167 Si    0.52355   0.60919   0.79246   0.01267  Uiso   1.00
Si5168 Si    0.53812   0.61528   0.66135   0.01267  Uiso   1.00
Si5169 Si    0.48470   0.22929   0.62975   0.01267  Uiso   1.00
Si5170 Si    0.46142   0.25959   0.65988   0.01267  Uiso   1.00
Si5171 Si    0.45630   0.21824   0.70313   0.01267  Uiso   1.00
Si5172 Si    0.42475   0.21795   0.70261   0.01267  Uiso   1.00
Si5173 Si    0.41461   0.25459   0.66060   0.01267  Uiso   1.00
Si5174 Si    0.43712   0.23048   0.63100   0.01267  Uiso   1.00
Si5175 Si    0.48454   0.45578   0.63236   0.01267  Uiso   1.00
Si5176 Si    0.45350   0.45921   0.70399   0.01267  Uiso   1.00
Si5177 Si    0.42292   0.45901   0.70175   0.01267  Uiso   1.00
Si5178 Si    0.41358   0.41176   0.65996   0.01267  Uiso   1.00
Si5179 Si    0.43687   0.45258   0.63284   0.01267  Uiso   1.00
Si5180 Si    0.41489   0.34132   0.72827   0.01267  Uiso   1.00
Si5181 Si    0.43816   0.31292   0.75752   0.01267  Uiso   1.00
Si5182 Si    0.44397   0.34608   0.60155   0.01267  Uiso   1.00
Si5183 Si    0.47565   0.34841   0.60181   0.01267  Uiso   1.00
Si5184 Si    0.48566   0.31349   0.75932   0.01267  Uiso   1.00
Si5185 Si    0.46326   0.34015   0.72998   0.01267  Uiso   1.00
Si5186 Si    0.41536   0.11047   0.73276   0.01267  Uiso   1.00
Si5187 Si    0.43812   0.15440   0.76122   0.01267  Uiso   1.00
Si5188 Si    0.44602   0.11509   0.60448   0.01267  Uiso   1.00
Si5189 Si    0.47662   0.11234   0.60309   0.01267  Uiso   1.00
Si5190 Si    0.48628   0.15524   0.76035   0.01267  Uiso   1.00
Si5191 Si    0.46256   0.10986   0.73460   0.01267  Uiso   1.00
Si5192 Si    0.51557   0.81298   0.63426   0.01267  Uiso   1.00
Si5193 Si    0.51464   0.65490   0.63477   0.01267  Uiso   1.00
Si5194 Si    0.48492   0.60995   0.63394   0.01267  Uiso   1.00
Si5195 Si    0.46110   0.41691   0.66129   0.01267  Uiso   1.00
Al5196 Al    0.46188   0.65046   0.66330   0.01267  Uiso   1.00
O5197  O     0.47568   0.84207   0.64861   0.01267  Uiso   1.00
O5198  O     0.46408   0.83937   0.68312   0.01267  Uiso   1.00
O5199  O     0.44020   0.84616   0.69845   0.01267  Uiso   1.00
O5200  O     0.41593   0.83841   0.68432   0.01267  Uiso   1.00
O5201  O     0.42378   0.85166   0.64697   0.01267  Uiso   1.00
O5202  O     0.44980   0.84927   0.65087   0.01267  Uiso   1.00
O5203  O     0.47596   0.61481   0.65315   0.01267  Uiso   1.00
O5204  O     0.46328   0.63255   0.68899   0.01267  Uiso   1.00
O5205  O     0.43821   0.63325   0.70155   0.01267  Uiso   1.00
O5206  O     0.41542   0.62562   0.68292   0.01267  Uiso   1.00
O5207  O     0.42216   0.61659   0.64471   0.01267  Uiso   1.00
O5208  O     0.44751   0.61507   0.65451   0.01267  Uiso   1.00
O5209  O     0.46188   0.73502   0.65882   0.01267  Uiso   1.00
O5210  O     0.41719   0.73364   0.66075   0.01267  Uiso   1.00
O5211  O     0.48473   0.91280   0.61843   0.01267  Uiso   1.00
O5212  O     0.48288   0.78221   0.61461   0.01267  Uiso   1.00
O5213  O     0.47939   0.65082   0.61488   0.01267  Uiso   1.00
O5214  O     0.43838   0.91857   0.62261   0.01267  Uiso   1.00
O5215  O     0.43810   0.78664   0.62078   0.01267  Uiso   1.00
O5216  O     0.43987   0.65518   0.61820   0.01267  Uiso   1.00
O5217  O     0.59895   0.82722   0.65552   0.01267  Uiso   1.00
O5218  O     0.59797   0.64633   0.65521   0.01267  Uiso   1.00
O5219  O     0.42556   0.71887   0.75202   0.01267  Uiso   1.00
O5220  O     0.43734   0.72780   0.78616   0.01267  Uiso   1.00
O5221  O     0.45961   0.73234   0.60610   0.01267  Uiso   1.00
O5222  O     0.47963   0.71593   0.78143   0.01267  Uiso   1.00
O5223  O     0.47601   0.72869   0.74268   0.01267  Uiso   1.00
O5224  O     0.45139   0.74236   0.75356   0.01267  Uiso   1.00
O5225  O     0.42602   0.95211   0.75107   0.01267  Uiso   1.00
O5226  O     0.43842   0.94513   0.78447   0.01267  Uiso   1.00
O5227  O     0.46103   0.93507   0.60364   0.01267  Uiso   1.00
O5228  O     0.48220   0.95145   0.78112   0.01267  Uiso   1.00
O5229  O     0.47706   0.93936   0.74299   0.01267  Uiso   1.00
O5230  O     0.45179   0.92743   0.75147   0.01267  Uiso   1.00
O5231  O     0.43463   0.83589   0.76351   0.01267  Uiso   1.00
O5232  O     0.48314   0.83306   0.76445   0.01267  Uiso   1.00
O5233  O     0.41592   0.65609   0.72092   0.01267  Uiso   1.00
O5234  O     0.42177   0.78484   0.71883   0.01267  Uiso   1.00
O5235  O     0.42075   0.91604   0.71426   0.01267  Uiso   1.00
O5236  O     0.45801   0.65269   0.72668   0.01267  Uiso   1.00
O5237  O     0.45889   0.78135   0.71755   0.01267  Uiso   1.00
O5238  O     0.46003   0.91306   0.71450   0.01267  Uiso   1.00
O5239  O     0.49966   0.73304   0.75658   0.01267  Uiso   1.00
O5240  O     0.50128   0.92362   0.75570   0.01267  Uiso   1.00
O5241  O     0.52644   0.34312   0.74879   0.01267  Uiso   1.00
O5242  O     0.53903   0.35220   0.71517   0.01267  Uiso   1.00
O5243  O     0.55958   0.33962   0.69095   0.01267  Uiso   1.00
O5244  O     0.57982   0.35087   0.71557   0.01267  Uiso   1.00
O5245  O     0.57737   0.33585   0.75425   0.01267  Uiso   1.00
O5246  O     0.55209   0.31933   0.74752   0.01267  Uiso   1.00
O5247  O     0.52649   0.12021   0.74655   0.01267  Uiso   1.00
O5248  O     0.53883   0.11954   0.71294   0.01267  Uiso   1.00
O5249  O     0.56126   0.13171   0.69339   0.01267  Uiso   1.00
O5250  O     0.58232   0.11284   0.71566   0.01267  Uiso   1.00
O5251  O     0.57740   0.12841   0.75378   0.01267  Uiso   1.00
O5252  O     0.55225   0.14438   0.74566   0.01267  Uiso   1.00
O5253  O     0.53551   0.23348   0.73177   0.01267  Uiso   1.00
O5254  O     0.58352   0.23273   0.73135   0.01267  Uiso   1.00
O5255  O     0.51502   0.41015   0.77746   0.01267  Uiso   1.00
O5256  O     0.51776   0.27968   0.78114   0.01267  Uiso   1.00
O5257  O     0.51978   0.14838   0.78345   0.01267  Uiso   1.00
O5258  O     0.56032   0.41021   0.77321   0.01267  Uiso   1.00
O5259  O     0.56246   0.28235   0.78192   0.01267  Uiso   1.00
O5260  O     0.56050   0.15012   0.78290   0.01267  Uiso   1.00
O5261  O     0.40072   0.33011   0.73871   0.01267  Uiso   1.00
O5262  O     0.40159   0.14229   0.74054   0.01267  Uiso   1.00
O5263  O     0.57397   0.22459   0.64934   0.01267  Uiso   1.00
O5264  O     0.56100   0.21841   0.61589   0.01267  Uiso   1.00
O5265  O     0.54013   0.22621   0.79221   0.01267  Uiso   1.00
O5266  O     0.51935   0.21892   0.61576   0.01267  Uiso   1.00
O5267  O     0.52256   0.22717   0.65440   0.01267  Uiso   1.00
O5268  O     0.54811   0.24252   0.64887   0.01267  Uiso   1.00
O5269  O     0.57359   0.45009   0.64532   0.01267  Uiso   1.00
O5270  O     0.56144   0.44091   0.61136   0.01267  Uiso   1.00
O5271  O     0.53846   0.43394   0.79315   0.01267  Uiso   1.00
O5272  O     0.51704   0.45039   0.61474   0.01267  Uiso   1.00
O5273  O     0.52247   0.44599   0.65302   0.01267  Uiso   1.00
O5274  O     0.54767   0.43158   0.64433   0.01267  Uiso   1.00
O5275  O     0.56385   0.33442   0.63412   0.01267  Uiso   1.00
O5276  O     0.51702   0.33506   0.63340   0.01267  Uiso   1.00
O5277  O     0.58481   0.15787   0.67889   0.01267  Uiso   1.00
O5278  O     0.58252   0.28864   0.68144   0.01267  Uiso   1.00
O5279  O     0.57949   0.41968   0.68260   0.01267  Uiso   1.00
O5280  O     0.53886   0.15540   0.67517   0.01267  Uiso   1.00
O5281  O     0.53683   0.28555   0.68179   0.01267  Uiso   1.00
O5282  O     0.53944   0.41786   0.68163   0.01267  Uiso   1.00
O5283  O     0.49902   0.24052   0.63968   0.01267  Uiso   1.00
O5284  O     0.49827   0.42423   0.64071   0.01267  Uiso   1.00
O5285  O     0.52502   0.72359   0.74934   0.01267  Uiso   1.00
O5286  O     0.53663   0.71987   0.71497   0.01267  Uiso   1.00
O5287  O     0.55978   0.72517   0.69735   0.01267  Uiso   1.00
O5288  O     0.58380   0.72323   0.71220   0.01267  Uiso   1.00
O5289  O     0.57680   0.72140   0.75008   0.01267  Uiso   1.00
O5290  O     0.55099   0.73498   0.74709   0.01267  Uiso   1.00
O5291  O     0.52551   0.94999   0.74416   0.01267  Uiso   1.00
O5292  O     0.53766   0.93537   0.71022   0.01267  Uiso   1.00
O5293  O     0.56150   0.93559   0.69460   0.01267  Uiso   1.00
O5294  O     0.58421   0.94762   0.71316   0.01267  Uiso   1.00
O5295  O     0.57691   0.94675   0.75094   0.01267  Uiso   1.00
O5296  O     0.55159   0.93487   0.74291   0.01267  Uiso   1.00
O5297  O     0.53574   0.83363   0.73513   0.01267  Uiso   1.00
O5298  O     0.58304   0.83463   0.73288   0.01267  Uiso   1.00
O5299  O     0.51433   0.65600   0.77878   0.01267  Uiso   1.00
O5300  O     0.51637   0.78737   0.78167   0.01267  Uiso   1.00
O5301  O     0.52092   0.91748   0.78172   0.01267  Uiso   1.00
O5302  O     0.56173   0.65241   0.77315   0.01267  Uiso   1.00
O5303  O     0.56354   0.78351   0.77833   0.01267  Uiso   1.00
O5304  O     0.56005   0.91483   0.77956   0.01267  Uiso   1.00
O5305  O     0.40138   0.74324   0.74019   0.01267  Uiso   1.00
O5306  O     0.40158   0.92438   0.74110   0.01267  Uiso   1.00
O5307  O     0.57457   0.84670   0.64457   0.01267  Uiso   1.00
O5308  O     0.56045   0.84616   0.61239   0.01267  Uiso   1.00
O5309  O     0.54032   0.83186   0.78769   0.01267  Uiso   1.00
O5310  O     0.52170   0.85033   0.61500   0.01267  Uiso   1.00
O5311  O     0.52374   0.83465   0.65374   0.01267  Uiso   1.00
O5312  O     0.54900   0.82034   0.64663   0.01267  Uiso   1.00
O5313  O     0.57406   0.61622   0.64383   0.01267  Uiso   1.00
O5314  O     0.56059   0.62156   0.61120   0.01267  Uiso   1.00
O5315  O     0.53875   0.63267   0.78997   0.01267  Uiso   1.00
O5316  O     0.51943   0.61365   0.61549   0.01267  Uiso   1.00
O5317  O     0.52328   0.63111   0.65378   0.01267  Uiso   1.00
O5318  O     0.54848   0.64207   0.64507   0.01267  Uiso   1.00
O5319  O     0.56507   0.73232   0.63113   0.01267  Uiso   1.00
O5320  O     0.51686   0.73334   0.63064   0.01267  Uiso   1.00
O5321  O     0.58393   0.91087   0.67559   0.01267  Uiso   1.00
O5322  O     0.57925   0.78135   0.67774   0.01267  Uiso   1.00
O5323  O     0.57822   0.64987   0.68123   0.01267  Uiso   1.00
O5324  O     0.54070   0.91203   0.67203   0.01267  Uiso   1.00
O5325  O     0.53910   0.78430   0.68128   0.01267  Uiso   1.00
O5326  O     0.54037   0.65177   0.68244   0.01267  Uiso   1.00
O5327  O     0.50054   0.83442   0.63819   0.01267  Uiso   1.00
O5328  O     0.49951   0.63868   0.63983   0.01267  Uiso   1.00
O5329  O     0.47376   0.23337   0.64700   0.01267  Uiso   1.00
O5330  O     0.46080   0.21641   0.68015   0.01267  Uiso   1.00
O5331  O     0.44049   0.22745   0.70473   0.01267  Uiso   1.00
O5332  O     0.42045   0.21506   0.67961   0.01267  Uiso   1.00
O5333  O     0.42267   0.23339   0.64098   0.01267  Uiso   1.00
O5334  O     0.44792   0.24988   0.64759   0.01267  Uiso   1.00
O5335  O     0.47360   0.44695   0.64951   0.01267  Uiso   1.00
O5336  O     0.46043   0.45456   0.68244   0.01267  Uiso   1.00
O5337  O     0.43824   0.43554   0.70246   0.01267  Uiso   1.00
O5338  O     0.41766   0.45520   0.67919   0.01267  Uiso   1.00
O5339  O     0.42228   0.43391   0.64107   0.01267  Uiso   1.00
O5340  O     0.44758   0.42840   0.64920   0.01267  Uiso   1.00
O5341  O     0.46321   0.33781   0.66505   0.01267  Uiso   1.00
O5342  O     0.41595   0.33371   0.66482   0.01267  Uiso   1.00
O5343  O     0.48434   0.15683   0.61931   0.01267  Uiso   1.00
O5344  O     0.48236   0.28576   0.61299   0.01267  Uiso   1.00
O5345  O     0.47996   0.41708   0.61246   0.01267  Uiso   1.00
O5346  O     0.43963   0.15614   0.62266   0.01267  Uiso   1.00
O5347  O     0.43772   0.28201   0.61263   0.01267  Uiso   1.00
O5348  O     0.43938   0.41390   0.61219   0.01267  Uiso   1.00
O5349  O     0.59939   0.23485   0.65660   0.01267  Uiso   1.00
O5350  O     0.59816   0.42453   0.65491   0.01267  Uiso   1.00
O5351  O     0.42617   0.34559   0.74509   0.01267  Uiso   1.00
O5352  O     0.43875   0.34782   0.77900   0.01267  Uiso   1.00
O5353  O     0.45987   0.33971   0.60217   0.01267  Uiso   1.00
O5354  O     0.48092   0.35101   0.77927   0.01267  Uiso   1.00
O5355  O     0.47750   0.34243   0.74069   0.01267  Uiso   1.00
O5356  O     0.45199   0.32609   0.74634   0.01267  Uiso   1.00
O5357  O     0.42616   0.11649   0.75024   0.01267  Uiso   1.00
O5358  O     0.43828   0.13126   0.78410   0.01267  Uiso   1.00
O5359  O     0.46137   0.13647   0.60178   0.01267  Uiso   1.00
O5360  O     0.48329   0.12100   0.78152   0.01267  Uiso   1.00
O5361  O     0.47729   0.12219   0.74317   0.01267  Uiso   1.00
O5362  O     0.45208   0.13608   0.75095   0.01267  Uiso   1.00
O5363  O     0.43569   0.23376   0.75968   0.01267  Uiso   1.00
O5364  O     0.48322   0.23424   0.76163   0.01267  Uiso   1.00
O5365  O     0.41439   0.41036   0.71590   0.01267  Uiso   1.00
O5366  O     0.41754   0.28017   0.71320   0.01267  Uiso   1.00
O5367  O     0.42031   0.14893   0.71301   0.01267  Uiso   1.00
O5368  O     0.46113   0.41167   0.71950   0.01267  Uiso   1.00
O5369  O     0.46335   0.28126   0.71366   0.01267  Uiso   1.00
O5370  O     0.46068   0.14952   0.71386   0.01267  Uiso   1.00
O5371  O     0.50106   0.32947   0.75516   0.01267  Uiso   1.00
O5372  O     0.50166   0.14318   0.75489   0.01267  Uiso   1.00
O5373  O     0.48671   0.53297   0.62673   0.01267  Uiso   1.00
O5374  O     0.43802   0.53056   0.62803   0.01267  Uiso   1.00
O5375  O     0.45457   0.53483   0.71211   0.01267  Uiso   1.00
O5376  O     0.42141   0.53464   0.70960   0.01267  Uiso   1.00
O5377  O     0.41327   0.03307   0.72711   0.01267  Uiso   1.00
O5378  O     0.46031   0.03147   0.73052   0.01267  Uiso   1.00
O5379  O     0.44491   0.03735   0.61008   0.01267  Uiso   1.00
O5380  O     0.47765   0.03542   0.60994   0.01267  Uiso   1.00
O5381  O     0.51330   0.03329   0.76819   0.01267  Uiso   1.00
O5382  O     0.56012   0.03549   0.76473   0.01267  Uiso   1.00
O5383  O     0.54459   0.03235   0.68530   0.01267  Uiso   1.00
O5384  O     0.57807   0.03363   0.68531   0.01267  Uiso   1.00
O5385  O     0.58653   0.53477   0.66797   0.01267  Uiso   1.00
O5386  O     0.53963   0.53603   0.66527   0.01267  Uiso   1.00
O5387  O     0.55523   0.53143   0.78424   0.01267  Uiso   1.00
O5388  O     0.52171   0.53284   0.78512   0.01267  Uiso   1.00
H5389  H     0.47836   0.61034   0.69640   0.01267  Uiso   1.00
H5390  H     0.51803   0.56025   0.68748   0.01267  Uiso   1.00
H5391  H     0.49611   0.60087   0.67473   0.01267  Uiso   1.00
H5392  H     0.47928   0.58796   0.73030   0.01267  Uiso   1.00
H5393  H     0.50054   0.54786   0.74554   0.01267  Uiso   1.00
H5394  H     0.52017   0.53368   0.72346   0.01267  Uiso   1.00
C5395  C     0.51084   0.55093   0.71750   0.01267  Uiso   1.00
C5396  C     0.50975   0.56565   0.69745   0.01267  Uiso   1.00
C5397  C     0.49783   0.58779   0.69009   0.01267  Uiso   1.00
C5398  C     0.48823   0.58054   0.72178   0.01267  Uiso   1.00
C5399  C     0.49996   0.55859   0.72983   0.01267  Uiso   1.00
N5400  N     0.48749   0.59435   0.70234   0.01267  Uiso   1.00
Si5401 Si    0.68561   0.84225   0.63009   0.01267  Uiso   1.00
Si5402 Si    0.66278   0.81360   0.66027   0.01267  Uiso   1.00
Si5403 Si    0.65583   0.84479   0.70339   0.01267  Uiso   1.00
Si5404 Si    0.62475   0.84618   0.70399   0.01267  Uiso   1.00
Si5405 Si    0.61407   0.81247   0.66182   0.01267  Uiso   1.00
Si5406 Si    0.63775   0.85034   0.63538   0.01267  Uiso   1.00
Si5407 Si    0.65332   0.61381   0.70670   0.01267  Uiso   1.00
Si5408 Si    0.62279   0.61254   0.70363   0.01267  Uiso   1.00
Si5409 Si    0.61342   0.65538   0.66086   0.01267  Uiso   1.00
Si5410 Si    0.63728   0.60581   0.63693   0.01267  Uiso   1.00
Si5411 Si    0.61616   0.72596   0.73282   0.01267  Uiso   1.00
Si5412 Si    0.63725   0.75636   0.76392   0.01267  Uiso   1.00
Si5413 Si    0.64379   0.72491   0.60809   0.01267  Uiso   1.00
Si5414 Si    0.67525   0.72020   0.60453   0.01267  Uiso   1.00
Si5415 Si    0.68454   0.75344   0.76158   0.01267  Uiso   1.00
Si5416 Si    0.66086   0.72720   0.73492   0.01267  Uiso   1.00
Si5417 Si    0.61539   0.95611   0.73338   0.01267  Uiso   1.00
Si5418 Si    0.63782   0.91458   0.76251   0.01267  Uiso   1.00
Si5419 Si    0.64574   0.95877   0.60524   0.01267  Uiso   1.00
Si5420 Si    0.67637   0.95824   0.60332   0.01267  Uiso   1.00
Si5421 Si    0.68589   0.91164   0.76112   0.01267  Uiso   1.00
Si5422 Si    0.66224   0.95289   0.73494   0.01267  Uiso   1.00
Si5423 Si    0.71519   0.33982   0.76571   0.01267  Uiso   1.00
Si5424 Si    0.73830   0.31154   0.73588   0.01267  Uiso   1.00
Si5425 Si    0.74378   0.34875   0.69231   0.01267  Uiso   1.00
Si5426 Si    0.77535   0.34962   0.69268   0.01267  Uiso   1.00
Si5427 Si    0.78542   0.31200   0.73485   0.01267  Uiso   1.00
Si5428 Si    0.76293   0.33679   0.76427   0.01267  Uiso   1.00
Si5429 Si    0.71525   0.11132   0.76325   0.01267  Uiso   1.00
Si5430 Si    0.73833   0.15455   0.73438   0.01267  Uiso   1.00
Si5431 Si    0.74591   0.10962   0.69171   0.01267  Uiso   1.00
Si5432 Si    0.77663   0.10913   0.69336   0.01267  Uiso   1.00
Si5433 Si    0.78622   0.15438   0.73533   0.01267  Uiso   1.00
Si5434 Si    0.76257   0.11429   0.76166   0.01267  Uiso   1.00
Si5435 Si    0.78502   0.22684   0.66654   0.01267  Uiso   1.00
Si5436 Si    0.76174   0.25522   0.63712   0.01267  Uiso   1.00
Si5437 Si    0.75600   0.21915   0.79322   0.01267  Uiso   1.00
Si5438 Si    0.72432   0.21829   0.79315   0.01267  Uiso   1.00
Si5439 Si    0.71441   0.25572   0.63571   0.01267  Uiso   1.00
Si5440 Si    0.73677   0.22759   0.66509   0.01267  Uiso   1.00
Si5441 Si    0.78450   0.45707   0.66266   0.01267  Uiso   1.00
Si5442 Si    0.76165   0.41398   0.63388   0.01267  Uiso   1.00
Si5443 Si    0.75388   0.45421   0.79068   0.01267  Uiso   1.00
Si5444 Si    0.72311   0.45652   0.79276   0.01267  Uiso   1.00
Si5445 Si    0.71366   0.41346   0.63542   0.01267  Uiso   1.00
Si5446 Si    0.73740   0.45749   0.66093   0.01267  Uiso   1.00
Si5447 Si    0.71403   0.72581   0.76664   0.01267  Uiso   1.00
Si5448 Si    0.73718   0.75373   0.73673   0.01267  Uiso   1.00
Si5449 Si    0.74407   0.72051   0.69376   0.01267  Uiso   1.00
Si5450 Si    0.77531   0.72011   0.69205   0.01267  Uiso   1.00
Si5451 Si    0.78627   0.75573   0.73380   0.01267  Uiso   1.00
Si5452 Si    0.76312   0.72372   0.76221   0.01267  Uiso   1.00
Si5453 Si    0.71522   0.95587   0.76240   0.01267  Uiso   1.00
Si5454 Si    0.73766   0.91329   0.73321   0.01267  Uiso   1.00
Si5455 Si    0.74614   0.95420   0.69068   0.01267  Uiso   1.00
Si5456 Si    0.77689   0.95655   0.69215   0.01267  Uiso   1.00
Si5457 Si    0.78641   0.91313   0.73451   0.01267  Uiso   1.00
Si5458 Si    0.76218   0.95772   0.75950   0.01267  Uiso   1.00
Si5459 Si    0.78425   0.84128   0.66354   0.01267  Uiso   1.00
Si5460 Si    0.76226   0.81123   0.63372   0.01267  Uiso   1.00
Si5461 Si    0.75608   0.84424   0.78947   0.01267  Uiso   1.00
Si5462 Si    0.72487   0.84689   0.79162   0.01267  Uiso   1.00
Si5463 Si    0.73824   0.83795   0.66343   0.01267  Uiso   1.00
Si5464 Si    0.78433   0.61201   0.66209   0.01267  Uiso   1.00
Si5465 Si    0.76208   0.65359   0.63289   0.01267  Uiso   1.00
Si5466 Si    0.75410   0.60952   0.78974   0.01267  Uiso   1.00
Si5467 Si    0.72355   0.60919   0.79246   0.01267  Uiso   1.00
Si5468 Si    0.73812   0.61528   0.66135   0.01267  Uiso   1.00
Si5469 Si    0.68470   0.22929   0.62975   0.01267  Uiso   1.00
Si5470 Si    0.66142   0.25959   0.65988   0.01267  Uiso   1.00
Si5471 Si    0.65630   0.21824   0.70313   0.01267  Uiso   1.00
Si5472 Si    0.62475   0.21795   0.70261   0.01267  Uiso   1.00
Si5473 Si    0.61461   0.25459   0.66060   0.01267  Uiso   1.00
Si5474 Si    0.63712   0.23048   0.63100   0.01267  Uiso   1.00
Si5475 Si    0.68454   0.45578   0.63236   0.01267  Uiso   1.00
Si5476 Si    0.65350   0.45921   0.70399   0.01267  Uiso   1.00
Si5477 Si    0.62292   0.45901   0.70175   0.01267  Uiso   1.00
Si5478 Si    0.61358   0.41176   0.65996   0.01267  Uiso   1.00
Si5479 Si    0.63687   0.45258   0.63284   0.01267  Uiso   1.00
Si5480 Si    0.61489   0.34132   0.72827   0.01267  Uiso   1.00
Si5481 Si    0.63816   0.31292   0.75752   0.01267  Uiso   1.00
Si5482 Si    0.64397   0.34608   0.60155   0.01267  Uiso   1.00
Si5483 Si    0.67565   0.34841   0.60181   0.01267  Uiso   1.00
Si5484 Si    0.68566   0.31349   0.75932   0.01267  Uiso   1.00
Si5485 Si    0.66326   0.34015   0.72998   0.01267  Uiso   1.00
Si5486 Si    0.61536   0.11047   0.73276   0.01267  Uiso   1.00
Si5487 Si    0.63812   0.15440   0.76122   0.01267  Uiso   1.00
Si5488 Si    0.64602   0.11509   0.60448   0.01267  Uiso   1.00
Si5489 Si    0.67662   0.11234   0.60309   0.01267  Uiso   1.00
Si5490 Si    0.68628   0.15524   0.76035   0.01267  Uiso   1.00
Si5491 Si    0.66256   0.10986   0.73460   0.01267  Uiso   1.00
Si5492 Si    0.71557   0.81298   0.63426   0.01267  Uiso   1.00
Si5493 Si    0.71464   0.65490   0.63477   0.01267  Uiso   1.00
Si5494 Si    0.68492   0.60995   0.63394   0.01267  Uiso   1.00
Si5495 Si    0.66110   0.41691   0.66129   0.01267  Uiso   1.00
Al5496 Al    0.66188   0.65046   0.66330   0.01267  Uiso   1.00
O5497  O     0.67568   0.84207   0.64861   0.01267  Uiso   1.00
O5498  O     0.66408   0.83937   0.68312   0.01267  Uiso   1.00
O5499  O     0.64020   0.84616   0.69845   0.01267  Uiso   1.00
O5500  O     0.61593   0.83841   0.68432   0.01267  Uiso   1.00
O5501  O     0.62378   0.85166   0.64697   0.01267  Uiso   1.00
O5502  O     0.64980   0.84927   0.65087   0.01267  Uiso   1.00
O5503  O     0.67596   0.61481   0.65315   0.01267  Uiso   1.00
O5504  O     0.66328   0.63255   0.68899   0.01267  Uiso   1.00
O5505  O     0.63821   0.63325   0.70155   0.01267  Uiso   1.00
O5506  O     0.61542   0.62562   0.68292   0.01267  Uiso   1.00
O5507  O     0.62216   0.61659   0.64471   0.01267  Uiso   1.00
O5508  O     0.64751   0.61507   0.65451   0.01267  Uiso   1.00
O5509  O     0.66188   0.73502   0.65882   0.01267  Uiso   1.00
O5510  O     0.61719   0.73364   0.66075   0.01267  Uiso   1.00
O5511  O     0.68473   0.91280   0.61843   0.01267  Uiso   1.00
O5512  O     0.68288   0.78221   0.61461   0.01267  Uiso   1.00
O5513  O     0.67939   0.65082   0.61488   0.01267  Uiso   1.00
O5514  O     0.63838   0.91857   0.62261   0.01267  Uiso   1.00
O5515  O     0.63810   0.78664   0.62078   0.01267  Uiso   1.00
O5516  O     0.63988   0.65518   0.61820   0.01267  Uiso   1.00
O5517  O     0.79895   0.82722   0.65552   0.01267  Uiso   1.00
O5518  O     0.79797   0.64633   0.65521   0.01267  Uiso   1.00
O5519  O     0.62556   0.71887   0.75202   0.01267  Uiso   1.00
O5520  O     0.63734   0.72780   0.78616   0.01267  Uiso   1.00
O5521  O     0.65961   0.73234   0.60610   0.01267  Uiso   1.00
O5522  O     0.67963   0.71593   0.78143   0.01267  Uiso   1.00
O5523  O     0.67601   0.72869   0.74268   0.01267  Uiso   1.00
O5524  O     0.65139   0.74236   0.75356   0.01267  Uiso   1.00
O5525  O     0.62602   0.95211   0.75107   0.01267  Uiso   1.00
O5526  O     0.63842   0.94513   0.78447   0.01267  Uiso   1.00
O5527  O     0.66103   0.93507   0.60364   0.01267  Uiso   1.00
O5528  O     0.68220   0.95145   0.78112   0.01267  Uiso   1.00
O5529  O     0.67706   0.93936   0.74299   0.01267  Uiso   1.00
O5530  O     0.65179   0.92743   0.75147   0.01267  Uiso   1.00
O5531  O     0.63463   0.83589   0.76351   0.01267  Uiso   1.00
O5532  O     0.68314   0.83306   0.76445   0.01267  Uiso   1.00
O5533  O     0.61592   0.65609   0.72092   0.01267  Uiso   1.00
O5534  O     0.62177   0.78484   0.71883   0.01267  Uiso   1.00
O5535  O     0.62075   0.91604   0.71426   0.01267  Uiso   1.00
O5536  O     0.65801   0.65269   0.72668   0.01267  Uiso   1.00
O5537  O     0.65889   0.78135   0.71755   0.01267  Uiso   1.00
O5538  O     0.66003   0.91306   0.71450   0.01267  Uiso   1.00
O5539  O     0.69966   0.73304   0.75658   0.01267  Uiso   1.00
O5540  O     0.70128   0.92362   0.75570   0.01267  Uiso   1.00
O5541  O     0.72644   0.34312   0.74879   0.01267  Uiso   1.00
O5542  O     0.73903   0.35220   0.71517   0.01267  Uiso   1.00
O5543  O     0.75958   0.33962   0.69095   0.01267  Uiso   1.00
O5544  O     0.77982   0.35087   0.71557   0.01267  Uiso   1.00
O5545  O     0.77737   0.33585   0.75425   0.01267  Uiso   1.00
O5546  O     0.75209   0.31933   0.74752   0.01267  Uiso   1.00
O5547  O     0.72649   0.12021   0.74655   0.01267  Uiso   1.00
O5548  O     0.73883   0.11954   0.71294   0.01267  Uiso   1.00
O5549  O     0.76126   0.13171   0.69339   0.01267  Uiso   1.00
O5550  O     0.78232   0.11284   0.71566   0.01267  Uiso   1.00
O5551  O     0.77740   0.12841   0.75378   0.01267  Uiso   1.00
O5552  O     0.75225   0.14438   0.74566   0.01267  Uiso   1.00
O5553  O     0.73551   0.23348   0.73177   0.01267  Uiso   1.00
O5554  O     0.78352   0.23273   0.73135   0.01267  Uiso   1.00
O5555  O     0.71502   0.41015   0.77746   0.01267  Uiso   1.00
O5556  O     0.71776   0.27968   0.78114   0.01267  Uiso   1.00
O5557  O     0.71978   0.14838   0.78345   0.01267  Uiso   1.00
O5558  O     0.76032   0.41021   0.77321   0.01267  Uiso   1.00
O5559  O     0.76246   0.28235   0.78192   0.01267  Uiso   1.00
O5560  O     0.76050   0.15012   0.78290   0.01267  Uiso   1.00
O5561  O     0.60072   0.33011   0.73871   0.01267  Uiso   1.00
O5562  O     0.60159   0.14229   0.74054   0.01267  Uiso   1.00
O5563  O     0.77397   0.22459   0.64934   0.01267  Uiso   1.00
O5564  O     0.76100   0.21841   0.61589   0.01267  Uiso   1.00
O5565  O     0.74013   0.22621   0.79221   0.01267  Uiso   1.00
O5566  O     0.71935   0.21892   0.61576   0.01267  Uiso   1.00
O5567  O     0.72256   0.22717   0.65440   0.01267  Uiso   1.00
O5568  O     0.74811   0.24252   0.64887   0.01267  Uiso   1.00
O5569  O     0.77359   0.45009   0.64532   0.01267  Uiso   1.00
O5570  O     0.76144   0.44091   0.61136   0.01267  Uiso   1.00
O5571  O     0.73846   0.43394   0.79315   0.01267  Uiso   1.00
O5572  O     0.71704   0.45039   0.61474   0.01267  Uiso   1.00
O5573  O     0.72247   0.44599   0.65302   0.01267  Uiso   1.00
O5574  O     0.74767   0.43158   0.64433   0.01267  Uiso   1.00
O5575  O     0.76385   0.33442   0.63412   0.01267  Uiso   1.00
O5576  O     0.71702   0.33506   0.63340   0.01267  Uiso   1.00
O5577  O     0.78481   0.15787   0.67889   0.01267  Uiso   1.00
O5578  O     0.78252   0.28864   0.68144   0.01267  Uiso   1.00
O5579  O     0.77949   0.41968   0.68260   0.01267  Uiso   1.00
O5580  O     0.73886   0.15540   0.67517   0.01267  Uiso   1.00
O5581  O     0.73683   0.28555   0.68179   0.01267  Uiso   1.00
O5582  O     0.73944   0.41786   0.68163   0.01267  Uiso   1.00
O5583  O     0.69902   0.24052   0.63968   0.01267  Uiso   1.00
O5584  O     0.69827   0.42423   0.64071   0.01267  Uiso   1.00
O5585  O     0.72502   0.72359   0.74934   0.01267  Uiso   1.00
O5586  O     0.73663   0.71987   0.71497   0.01267  Uiso   1.00
O5587  O     0.75978   0.72517   0.69735   0.01267  Uiso   1.00
O5588  O     0.78380   0.72323   0.71220   0.01267  Uiso   1.00
O5589  O     0.77680   0.72140   0.75008   0.01267  Uiso   1.00
O5590  O     0.75099   0.73498   0.74709   0.01267  Uiso   1.00
O5591  O     0.72551   0.94999   0.74416   0.01267  Uiso   1.00
O5592  O     0.73766   0.93537   0.71022   0.01267  Uiso   1.00
O5593  O     0.76150   0.93559   0.69460   0.01267  Uiso   1.00
O5594  O     0.78421   0.94762   0.71316   0.01267  Uiso   1.00
O5595  O     0.77691   0.94675   0.75094   0.01267  Uiso   1.00
O5596  O     0.75159   0.93487   0.74291   0.01267  Uiso   1.00
O5597  O     0.73574   0.83363   0.73513   0.01267  Uiso   1.00
O5598  O     0.78304   0.83463   0.73288   0.01267  Uiso   1.00
O5599  O     0.71433   0.65600   0.77878   0.01267  Uiso   1.00
O5600  O     0.71637   0.78737   0.78167   0.01267  Uiso   1.00
O5601  O     0.72092   0.91748   0.78172   0.01267  Uiso   1.00
O5602  O     0.76173   0.65241   0.77315   0.01267  Uiso   1.00
O5603  O     0.76354   0.78351   0.77833   0.01267  Uiso   1.00
O5604  O     0.76005   0.91483   0.77956   0.01267  Uiso   1.00
O5605  O     0.60138   0.74324   0.74019   0.01267  Uiso   1.00
O5606  O     0.60158   0.92438   0.74110   0.01267  Uiso   1.00
O5607  O     0.77457   0.84670   0.64457   0.01267  Uiso   1.00
O5608  O     0.76045   0.84616   0.61239   0.01267  Uiso   1.00
O5609  O     0.74032   0.83186   0.78769   0.01267  Uiso   1.00
O5610  O     0.72170   0.85033   0.61500   0.01267  Uiso   1.00
O5611  O     0.72374   0.83465   0.65374   0.01267  Uiso   1.00
O5612  O     0.74900   0.82034   0.64663   0.01267  Uiso   1.00
O5613  O     0.77406   0.61622   0.64383   0.01267  Uiso   1.00
O5614  O     0.76059   0.62156   0.61120   0.01267  Uiso   1.00
O5615  O     0.73875   0.63267   0.78997   0.01267  Uiso   1.00
O5616  O     0.71943   0.61365   0.61549   0.01267  Uiso   1.00
O5617  O     0.72328   0.63111   0.65378   0.01267  Uiso   1.00
O5618  O     0.74848   0.64207   0.64507   0.01267  Uiso   1.00
O5619  O     0.76507   0.73232   0.63113   0.01267  Uiso   1.00
O5620  O     0.71686   0.73334   0.63064   0.01267  Uiso   1.00
O5621  O     0.78393   0.91087   0.67559   0.01267  Uiso   1.00
O5622  O     0.77925   0.78135   0.67774   0.01267  Uiso   1.00
O5623  O     0.77822   0.64987   0.68123   0.01267  Uiso   1.00
O5624  O     0.74070   0.91203   0.67203   0.01267  Uiso   1.00
O5625  O     0.73910   0.78430   0.68128   0.01267  Uiso   1.00
O5626  O     0.74037   0.65177   0.68244   0.01267  Uiso   1.00
O5627  O     0.70054   0.83442   0.63819   0.01267  Uiso   1.00
O5628  O     0.69951   0.63868   0.63983   0.01267  Uiso   1.00
O5629  O     0.67376   0.23337   0.64700   0.01267  Uiso   1.00
O5630  O     0.66080   0.21641   0.68015   0.01267  Uiso   1.00
O5631  O     0.64049   0.22745   0.70473   0.01267  Uiso   1.00
O5632  O     0.62045   0.21506   0.67961   0.01267  Uiso   1.00
O5633  O     0.62267   0.23339   0.64098   0.01267  Uiso   1.00
O5634  O     0.64792   0.24988   0.64759   0.01267  Uiso   1.00
O5635  O     0.67360   0.44695   0.64951   0.01267  Uiso   1.00
O5636  O     0.66043   0.45456   0.68244   0.01267  Uiso   1.00
O5637  O     0.63824   0.43554   0.70246   0.01267  Uiso   1.00
O5638  O     0.61766   0.45520   0.67919   0.01267  Uiso   1.00
O5639  O     0.62228   0.43391   0.64107   0.01267  Uiso   1.00
O5640  O     0.64758   0.42840   0.64920   0.01267  Uiso   1.00
O5641  O     0.66321   0.33781   0.66505   0.01267  Uiso   1.00
O5642  O     0.61595   0.33371   0.66482   0.01267  Uiso   1.00
O5643  O     0.68434   0.15683   0.61931   0.01267  Uiso   1.00
O5644  O     0.68236   0.28576   0.61299   0.01267  Uiso   1.00
O5645  O     0.67996   0.41708   0.61246   0.01267  Uiso   1.00
O5646  O     0.63963   0.15614   0.62266   0.01267  Uiso   1.00
O5647  O     0.63772   0.28201   0.61263   0.01267  Uiso   1.00
O5648  O     0.63938   0.41390   0.61219   0.01267  Uiso   1.00
O5649  O     0.79939   0.23485   0.65660   0.01267  Uiso   1.00
O5650  O     0.79816   0.42453   0.65491   0.01267  Uiso   1.00
O5651  O     0.62617   0.34559   0.74509   0.01267  Uiso   1.00
O5652  O     0.63875   0.34782   0.77900   0.01267  Uiso   1.00
O5653  O     0.65987   0.33971   0.60217   0.01267  Uiso   1.00
O5654  O     0.68092   0.35101   0.77927   0.01267  Uiso   1.00
O5655  O     0.67750   0.34243   0.74069   0.01267  Uiso   1.00
O5656  O     0.65199   0.32609   0.74634   0.01267  Uiso   1.00
O5657  O     0.62616   0.11649   0.75024   0.01267  Uiso   1.00
O5658  O     0.63828   0.13126   0.78410   0.01267  Uiso   1.00
O5659  O     0.66137   0.13647   0.60178   0.01267  Uiso   1.00
O5660  O     0.68329   0.12100   0.78152   0.01267  Uiso   1.00
O5661  O     0.67729   0.12219   0.74317   0.01267  Uiso   1.00
O5662  O     0.65208   0.13608   0.75095   0.01267  Uiso   1.00
O5663  O     0.63569   0.23376   0.75968   0.01267  Uiso   1.00
O5664  O     0.68322   0.23424   0.76163   0.01267  Uiso   1.00
O5665  O     0.61439   0.41036   0.71590   0.01267  Uiso   1.00
O5666  O     0.61754   0.28017   0.71320   0.01267  Uiso   1.00
O5667  O     0.62031   0.14893   0.71301   0.01267  Uiso   1.00
O5668  O     0.66113   0.41167   0.71950   0.01267  Uiso   1.00
O5669  O     0.66335   0.28126   0.71366   0.01267  Uiso   1.00
O5670  O     0.66068   0.14952   0.71386   0.01267  Uiso   1.00
O5671  O     0.70106   0.32947   0.75516   0.01267  Uiso   1.00
O5672  O     0.70166   0.14318   0.75489   0.01267  Uiso   1.00
O5673  O     0.68671   0.53297   0.62673   0.01267  Uiso   1.00
O5674  O     0.63802   0.53056   0.62803   0.01267  Uiso   1.00
O5675  O     0.65457   0.53483   0.71211   0.01267  Uiso   1.00
O5676  O     0.62141   0.53464   0.70960   0.01267  Uiso   1.00
O5677  O     0.61327   0.03307   0.72711   0.01267  Uiso   1.00
O5678  O     0.66031   0.03147   0.73052   0.01267  Uiso   1.00
O5679  O     0.64491   0.03735   0.61008   0.01267  Uiso   1.00
O5680  O     0.67765   0.03542   0.60994   0.01267  Uiso   1.00
O5681  O     0.71330   0.03329   0.76819   0.01267  Uiso   1.00
O5682  O     0.76012   0.03549   0.76473   0.01267  Uiso   1.00
O5683  O     0.74459   0.03235   0.68530   0.01267  Uiso   1.00
O5684  O     0.77807   0.03363   0.68531   0.01267  Uiso   1.00
O5685  O     0.78653   0.53477   0.66797   0.01267  Uiso   1.00
O5686  O     0.73963   0.53603   0.66527   0.01267  Uiso   1.00
O5687  O     0.75523   0.53143   0.78424   0.01267  Uiso   1.00
O5688  O     0.72171   0.53284   0.78512   0.01267  Uiso   1.00
H5689  H     0.67836   0.61034   0.69640   0.01267  Uiso   1.00
H5690  H     0.71803   0.56025   0.68748   0.01267  Uiso   1.00
H5691  H     0.69611   0.60087   0.67473   0.01267  Uiso   1.00
H5692  H     0.67928   0.58796   0.73030   0.01267  Uiso   1.00
H5693  H     0.70054   0.54786   0.74554   0.01267  Uiso   1.00
H5694  H     0.72017   0.53368   0.72346   0.01267  Uiso   1.00
C5695  C     0.71084   0.55093   0.71750   0.01267  Uiso   1.00
C5696  C     0.70975   0.56565   0.69745   0.01267  Uiso   1.00
C5697  C     0.69783   0.58779   0.69009   0.01267  Uiso   1.00
C5698  C     0.68823   0.58054   0.72178   0.01267  Uiso   1.00
C5699  C     0.69996   0.55859   0.72983   0.01267  Uiso   1.00
N5700  N     0.68749   0.59435   0.70234   0.01267  Uiso   1.00
Si5701 Si    0.88561   0.84225   0.63009   0.01267  Uiso   1.00
Si5702 Si    0.86278   0.81360   0.66027   0.01267  Uiso   1.00
Si5703 Si    0.85583   0.84479   0.70339   0.01267  Uiso   1.00
Si5704 Si    0.82475   0.84618   0.70399   0.01267  Uiso   1.00
Si5705 Si    0.81407   0.81247   0.66182   0.01267  Uiso   1.00
Si5706 Si    0.83775   0.85034   0.63538   0.01267  Uiso   1.00
Si5707 Si    0.85332   0.61381   0.70670   0.01267  Uiso   1.00
Si5708 Si    0.82279   0.61254   0.70363   0.01267  Uiso   1.00
Si5709 Si    0.81342   0.65538   0.66086   0.01267  Uiso   1.00
Si5710 Si    0.83728   0.60581   0.63693   0.01267  Uiso   1.00
Si5711 Si    0.81616   0.72596   0.73282   0.01267  Uiso   1.00
Si5712 Si    0.83725   0.75636   0.76392   0.01267  Uiso   1.00
Si5713 Si    0.84379   0.72491   0.60809   0.01267  Uiso   1.00
Si5714 Si    0.87525   0.72020   0.60453   0.01267  Uiso   1.00
Si5715 Si    0.88454   0.75344   0.76158   0.01267  Uiso   1.00
Si5716 Si    0.86086   0.72720   0.73492   0.01267  Uiso   1.00
Si5717 Si    0.81539   0.95611   0.73338   0.01267  Uiso   1.00
Si5718 Si    0.83782   0.91458   0.76251   0.01267  Uiso   1.00
Si5719 Si    0.84574   0.95877   0.60524   0.01267  Uiso   1.00
Si5720 Si    0.87637   0.95824   0.60332   0.01267  Uiso   1.00
Si5721 Si    0.88589   0.91164   0.76112   0.01267  Uiso   1.00
Si5722 Si    0.86224   0.95289   0.73494   0.01267  Uiso   1.00
Si5723 Si    0.91519   0.33982   0.76571   0.01267  Uiso   1.00
Si5724 Si    0.93830   0.31154   0.73588   0.01267  Uiso   1.00
Si5725 Si    0.94378   0.34875   0.69231   0.01267  Uiso   1.00
Si5726 Si    0.97535   0.34962   0.69268   0.01267  Uiso   1.00
Si5727 Si    0.98542   0.31200   0.73485   0.01267  Uiso   1.00
Si5728 Si    0.96293   0.33679   0.76427   0.01267  Uiso   1.00
Si5729 Si    0.91525   0.11132   0.76325   0.01267  Uiso   1.00
Si5730 Si    0.93833   0.15455   0.73438   0.01267  Uiso   1.00
Si5731 Si    0.94591   0.10962   0.69171   0.01267  Uiso   1.00
Si5732 Si    0.97663   0.10913   0.69336   0.01267  Uiso   1.00
Si5733 Si    0.98622   0.15438   0.73533   0.01267  Uiso   1.00
Si5734 Si    0.96257   0.11429   0.76166   0.01267  Uiso   1.00
Si5735 Si    0.98502   0.22684   0.66654   0.01267  Uiso   1.00
Si5736 Si    0.96174   0.25522   0.63712   0.01267  Uiso   1.00
Si5737 Si    0.95600   0.21915   0.79322   0.01267  Uiso   1.00
Si5738 Si    0.92432   0.21829   0.79315   0.01267  Uiso   1.00
Si5739 Si    0.91441   0.25572   0.63571   0.01267  Uiso   1.00
Si5740 Si    0.93677   0.22759   0.66509   0.01267  Uiso   1.00
Si5741 Si    0.98450   0.45707   0.66266   0.01267  Uiso   1.00
Si5742 Si    0.96165   0.41398   0.63388   0.01267  Uiso   1.00
Si5743 Si    0.95388   0.45421   0.79068   0.01267  Uiso   1.00
Si5744 Si    0.92311   0.45652   0.79276   0.01267  Uiso   1.00
Si5745 Si    0.91366   0.41346   0.63542   0.01267  Uiso   1.00
Si5746 Si    0.93740   0.45749   0.66093   0.01267  Uiso   1.00
Si5747 Si    0.91403   0.72581   0.76664   0.01267  Uiso   1.00
Si5748 Si    0.93718   0.75373   0.73673   0.01267  Uiso   1.00
Si5749 Si    0.94407   0.72051   0.69376   0.01267  Uiso   1.00
Si5750 Si    0.97531   0.72011   0.69205   0.01267  Uiso   1.00
Si5751 Si    0.98627   0.75573   0.73380   0.01267  Uiso   1.00
Si5752 Si    0.96312   0.72372   0.76221   0.01267  Uiso   1.00
Si5753 Si    0.91522   0.95587   0.76240   0.01267  Uiso   1.00
Si5754 Si    0.93766   0.91329   0.73321   0.01267  Uiso   1.00
Si5755 Si    0.94614   0.95420   0.69068   0.01267  Uiso   1.00
Si5756 Si    0.97689   0.95655   0.69215   0.01267  Uiso   1.00
Si5757 Si    0.98641   0.91313   0.73451   0.01267  Uiso   1.00
Si5758 Si    0.96218   0.95772   0.75950   0.01267  Uiso   1.00
Si5759 Si    0.98425   0.84128   0.66354   0.01267  Uiso   1.00
Si5760 Si    0.96226   0.81123   0.63372   0.01267  Uiso   1.00
Si5761 Si    0.95608   0.84424   0.78947   0.01267  Uiso   1.00
Si5762 Si    0.92487   0.84689   0.79162   0.01267  Uiso   1.00
Si5763 Si    0.93824   0.83795   0.66343   0.01267  Uiso   1.00
Si5764 Si    0.98433   0.61201   0.66209   0.01267  Uiso   1.00
Si5765 Si    0.96208   0.65359   0.63289   0.01267  Uiso   1.00
Si5766 Si    0.95410   0.60952   0.78974   0.01267  Uiso   1.00
Si5767 Si    0.92355   0.60919   0.79246   0.01267  Uiso   1.00
Si5768 Si    0.93812   0.61528   0.66135   0.01267  Uiso   1.00
Si5769 Si    0.88470   0.22929   0.62975   0.01267  Uiso   1.00
Si5770 Si    0.86142   0.25959   0.65988   0.01267  Uiso   1.00
Si5771 Si    0.85630   0.21824   0.70313   0.01267  Uiso   1.00
Si5772 Si    0.82475   0.21795   0.70261   0.01267  Uiso   1.00
Si5773 Si    0.81461   0.25459   0.66060   0.01267  Uiso   1.00
Si5774 Si    0.83712   0.23048   0.63100   0.01267  Uiso   1.00
Si5775 Si    0.88454   0.45578   0.63236   0.01267  Uiso   1.00
Si5776 Si    0.85350   0.45921   0.70399   0.01267  Uiso   1.00
Si5777 Si    0.82292   0.45901   0.70175   0.01267  Uiso   1.00
Si5778 Si    0.81358   0.41176   0.65996   0.01267  Uiso   1.00
Si5779 Si    0.83687   0.45258   0.63284   0.01267  Uiso   1.00
Si5780 Si    0.81489   0.34132   0.72827   0.01267  Uiso   1.00
Si5781 Si    0.83816   0.31292   0.75752   0.01267  Uiso   1.00
Si5782 Si    0.84397   0.34608   0.60155   0.01267  Uiso   1.00
Si5783 Si    0.87565   0.34841   0.60181   0.01267  Uiso   1.00
Si5784 Si    0.88566   0.31349   0.75932   0.01267  Uiso   1.00
Si5785 Si    0.86326   0.34015   0.72998   0.01267  Uiso   1.00
Si5786 Si    0.81536   0.11047   0.73276   0.01267  Uiso   1.00
Si5787 Si    0.83812   0.15440   0.76122   0.01267  Uiso   1.00
Si5788 Si    0.84602   0.11509   0.60448   0.01267  Uiso   1.00
Si5789 Si    0.87662   0.11234   0.60309   0.01267  Uiso   1.00
Si5790 Si    0.88628   0.15524   0.76035   0.01267  Uiso   1.00
Si5791 Si    0.86256   0.10986   0.73460   0.01267  Uiso   1.00
Si5792 Si    0.91557   0.81298   0.63426   0.01267  Uiso   1.00
Si5793 Si    0.91464   0.65490   0.63477   0.01267  Uiso   1.00
Si5794 Si    0.88492   0.60995   0.63394   0.01267  Uiso   1.00
Si5795 Si    0.86110   0.41691   0.66129   0.01267  Uiso   1.00
Al5796 Al    0.86188   0.65046   0.66330   0.01267  Uiso   1.00
O5797  O     0.87568   0.84207   0.64861   0.01267  Uiso   1.00
O5798  O     0.86408   0.83937   0.68312   0.01267  Uiso   1.00
O5799  O     0.84020   0.84616   0.69845   0.01267  Uiso   1.00
O5800  O     0.81593   0.83841   0.68432   0.01267  Uiso   1.00
O5801  O     0.82378   0.85166   0.64697   0.01267  Uiso   1.00
O5802  O     0.84980   0.84927   0.65087   0.01267  Uiso   1.00
O5803  O     0.87596   0.61481   0.65315   0.01267  Uiso   1.00
O5804  O     0.86328   0.63255   0.68899   0.01267  Uiso   1.00
O5805  O     0.83821   0.63325   0.70155   0.01267  Uiso   1.00
O5806  O     0.81542   0.62562   0.68292   0.01267  Uiso   1.00
O5807  O     0.82216   0.61659   0.64471   0.01267  Uiso   1.00
O5808  O     0.84751   0.61507   0.65451   0.01267  Uiso   1.00
O5809  O     0.86188   0.73502   0.65882   0.01267  Uiso   1.00
O5810  O     0.81719   0.73364   0.66075   0.01267  Uiso   1.00
O5811  O     0.88473   0.91280   0.61843   0.01267  Uiso   1.00
O5812  O     0.88288   0.78221   0.61461   0.01267  Uiso   1.00
O5813  O     0.87939   0.65082   0.61488   0.01267  Uiso   1.00
O5814  O     0.83838   0.91857   0.62261   0.01267  Uiso   1.00
O5815  O     0.83810   0.78664   0.62078   0.01267  Uiso   1.00
O5816  O     0.83988   0.65518   0.61820   0.01267  Uiso   1.00
O5817  O     0.99895   0.82722   0.65552   0.01267  Uiso   1.00
O5818  O     0.99797   0.64633   0.65521   0.01267  Uiso   1.00
O5819  O     0.82556   0.71887   0.75202   0.01267  Uiso   1.00
O5820  O     0.83734   0.72780   0.78616   0.01267  Uiso   1.00
O5821  O     0.85961   0.73234   0.60610   0.01267  Uiso   1.00
O5822  O     0.87963   0.71593   0.78143   0.01267  Uiso   1.00
O5823  O     0.87601   0.72869   0.74268   0.01267  Uiso   1.00
O5824  O     0.85139   0.74236   0.75356   0.01267  Uiso   1.00
O5825  O     0.82602   0.95211   0.75107   0.01267  Uiso   1.00
O5826  O     0.83842   0.94513   0.78447   0.01267  Uiso   1.00
O5827  O     0.86103   0.93507   0.60364   0.01267  Uiso   1.00
O5828  O     0.88220   0.95145   0.78112   0.01267  Uiso   1.00
O5829  O     0.87706   0.93936   0.74299   0.01267  Uiso   1.00
O5830  O     0.85179   0.92743   0.75147   0.01267  Uiso   1.00
O5831  O     0.83463   0.83589   0.76351   0.01267  Uiso   1.00
O5832  O     0.88314   0.83306   0.76445   0.01267  Uiso   1.00
O5833  O     0.81592   0.65609   0.72092   0.01267  Uiso   1.00
O5834  O     0.82177   0.78484   0.71883   0.01267  Uiso   1.00
O5835  O     0.82075   0.91604   0.71426   0.01267  Uiso   1.00
O5836  O     0.85801   0.65269   0.72668   0.01267  Uiso   1.00
O5837  O     0.85889   0.78135   0.71755   0.01267  Uiso   1.00
O5838  O     0.86003   0.91306   0.71450   0.01267  Uiso   1.00
O5839  O     0.89966   0.73304   0.75658   0.01267  Uiso   1.00
O5840  O     0.90128   0.92362   0.75570   0.01267  Uiso   1.00
O5841  O     0.92644   0.34312   0.74879   0.01267  Uiso   1.00
O5842  O     0.93903   0.35220   0.71517   0.01267  Uiso   1.00
O5843  O     0.95958   0.33962   0.69095   0.01267  Uiso   1.00
O5844  O     0.97982   0.35087   0.71557   0.01267  Uiso   1.00
O5845  O     0.97737   0.33585   0.75425   0.01267  Uiso   1.00
O5846  O     0.95209   0.31933   0.74752   0.01267  Uiso   1.00
O5847  O     0.92649   0.12021   0.74655   0.01267  Uiso   1.00
O5848  O     0.93883   0.11954   0.71294   0.01267  Uiso   1.00
O5849  O     0.96126   0.13171   0.69339   0.01267  Uiso   1.00
O5850  O     0.98232   0.11284   0.71566   0.01267  Uiso   1.00
O5851  O     0.97740   0.12841   0.75378   0.01267  Uiso   1.00
O5852  O     0.95225   0.14438   0.74566   0.01267  Uiso   1.00
O5853  O     0.93551   0.23348   0.73177   0.01267  Uiso   1.00
O5854  O     0.98352   0.23273   0.73135   0.01267  Uiso   1.00
O5855  O     0.91502   0.41015   0.77746   0.01267  Uiso   1.00
O5856  O     0.91776   0.27968   0.78114   0.01267  Uiso   1.00
O5857  O     0.91978   0.14838   0.78345   0.01267  Uiso   1.00
O5858  O     0.96032   0.41021   0.77321   0.01267  Uiso   1.00
O5859  O     0.96246   0.28235   0.78192   0.01267  Uiso   1.00
O5860  O     0.96050   0.15012   0.78290   0.01267  Uiso   1.00
O5861  O     0.80072   0.33011   0.73871   0.01267  Uiso   1.00
O5862  O     0.80159   0.14229   0.74054   0.01267  Uiso   1.00
O5863  O     0.97397   0.22459   0.64934   0.01267  Uiso   1.00
O5864  O     0.96100   0.21841   0.61589   0.01267  Uiso   1.00
O5865  O     0.94013   0.22621   0.79221   0.01267  Uiso   1.00
O5866  O     0.91935   0.21892   0.61576   0.01267  Uiso   1.00
O5867  O     0.92256   0.22717   0.65440   0.01267  Uiso   1.00
O5868  O     0.94811   0.24252   0.64887   0.01267  Uiso   1.00
O5869  O     0.97359   0.45009   0.64532   0.01267  Uiso   1.00
O5870  O     0.96144   0.44091   0.61136   0.01267  Uiso   1.00
O5871  O     0.93846   0.43394   0.79315   0.01267  Uiso   1.00
O5872  O     0.91704   0.45039   0.61474   0.01267  Uiso   1.00
O5873  O     0.92247   0.44599   0.65302   0.01267  Uiso   1.00
O5874  O     0.94767   0.43158   0.64433   0.01267  Uiso   1.00
O5875  O     0.96385   0.33442   0.63412   0.01267  Uiso   1.00
O5876  O     0.91702   0.33506   0.63340   0.01267  Uiso   1.00
O5877  O     0.98481   0.15787   0.67889   0.01267  Uiso   1.00
O5878  O     0.98252   0.28864   0.68144   0.01267  Uiso   1.00
O5879  O     0.97949   0.41968   0.68260   0.01267  Uiso   1.00
O5880  O     0.93886   0.15540   0.67517   0.01267  Uiso   1.00
O5881  O     0.93683   0.28555   0.68179   0.01267  Uiso   1.00
O5882  O     0.93944   0.41786   0.68163   0.01267  Uiso   1.00
O5883  O     0.89902   0.24052   0.63968   0.01267  Uiso   1.00
O5884  O     0.89827   0.42423   0.64071   0.01267  Uiso   1.00
O5885  O     0.92502   0.72359   0.74934   0.01267  Uiso   1.00
O5886  O     0.93663   0.71987   0.71497   0.01267  Uiso   1.00
O5887  O     0.95978   0.72517   0.69735   0.01267  Uiso   1.00
O5888  O     0.98380   0.72323   0.71220   0.01267  Uiso   1.00
O5889  O     0.97680   0.72140   0.75008   0.01267  Uiso   1.00
O5890  O     0.95099   0.73498   0.74709   0.01267  Uiso   1.00
O5891  O     0.92551   0.94999   0.74416   0.01267  Uiso   1.00
O5892  O     0.93766   0.93537   0.71022   0.01267  Uiso   1.00
O5893  O     0.96150   0.93559   0.69460   0.01267  Uiso   1.00
O5894  O     0.98421   0.94762   0.71316   0.01267  Uiso   1.00
O5895  O     0.97691   0.94675   0.75094   0.01267  Uiso   1.00
O5896  O     0.95159   0.93487   0.74291   0.01267  Uiso   1.00
O5897  O     0.93574   0.83363   0.73513   0.01267  Uiso   1.00
O5898  O     0.98304   0.83463   0.73288   0.01267  Uiso   1.00
O5899  O     0.91433   0.65600   0.77878   0.01267  Uiso   1.00
O5900  O     0.91637   0.78737   0.78167   0.01267  Uiso   1.00
O5901  O     0.92092   0.91748   0.78172   0.01267  Uiso   1.00
O5902  O     0.96173   0.65241   0.77315   0.01267  Uiso   1.00
O5903  O     0.96354   0.78351   0.77833   0.01267  Uiso   1.00
O5904  O     0.96005   0.91483   0.77956   0.01267  Uiso   1.00
O5905  O     0.80138   0.74324   0.74019   0.01267  Uiso   1.00
O5906  O     0.80158   0.92438   0.74110   0.01267  Uiso   1.00
O5907  O     0.97457   0.84670   0.64457   0.01267  Uiso   1.00
O5908  O     0.96045   0.84616   0.61239   0.01267  Uiso   1.00
O5909  O     0.94032   0.83186   0.78769   0.01267  Uiso   1.00
O5910  O     0.92170   0.85033   0.61500   0.01267  Uiso   1.00
O5911  O     0.92374   0.83465   0.65374   0.01267  Uiso   1.00
O5912  O     0.94900   0.82034   0.64663   0.01267  Uiso   1.00
O5913  O     0.97406   0.61622   0.64383   0.01267  Uiso   1.00
O5914  O     0.96059   0.62156   0.61120   0.01267  Uiso   1.00
O5915  O     0.93875   0.63267   0.78997   0.01267  Uiso   1.00
O5916  O     0.91943   0.61365   0.61549   0.01267  Uiso   1.00
O5917  O     0.92328   0.63111   0.65378   0.01267  Uiso   1.00
O5918  O     0.94848   0.64207   0.64507   0.01267  Uiso   1.00
O5919  O     0.96507   0.73232   0.63113   0.01267  Uiso   1.00
O5920  O     0.91686   0.73334   0.63064   0.01267  Uiso   1.00
O5921  O     0.98393   0.91087   0.67559   0.01267  Uiso   1.00
O5922  O     0.97925   0.78135   0.67774   0.01267  Uiso   1.00
O5923  O     0.97822   0.64987   0.68123   0.01267  Uiso   1.00
O5924  O     0.94070   0.91203   0.67203   0.01267  Uiso   1.00
O5925  O     0.93910   0.78430   0.68128   0.01267  Uiso   1.00
O5926  O     0.94037   0.65177   0.68244   0.01267  Uiso   1.00
O5927  O     0.90054   0.83442   0.63819   0.01267  Uiso   1.00
O5928  O     0.89951   0.63868   0.63983   0.01267  Uiso   1.00
O5929  O     0.87376   0.23337   0.64700   0.01267  Uiso   1.00
O5930  O     0.86080   0.21641   0.68015   0.01267  Uiso   1.00
O5931  O     0.84049   0.22745   0.70473   0.01267  Uiso   1.00
O5932  O     0.82045   0.21506   0.67961   0.01267  Uiso   1.00
O5933  O     0.82267   0.23339   0.64098   0.01267  Uiso   1.00
O5934  O     0.84792   0.24988   0.64759   0.01267  Uiso   1.00
O5935  O     0.87360   0.44695   0.64951   0.01267  Uiso   1.00
O5936  O     0.86043   0.45456   0.68244   0.01267  Uiso   1.00
O5937  O     0.83824   0.43554   0.70246   0.01267  Uiso   1.00
O5938  O     0.81766   0.45520   0.67919   0.01267  Uiso   1.00
O5939  O     0.82228   0.43391   0.64107   0.01267  Uiso   1.00
O5940  O     0.84758   0.42840   0.64920   0.01267  Uiso   1.00
O5941  O     0.86321   0.33781   0.66505   0.01267  Uiso   1.00
O5942  O     0.81595   0.33371   0.66482   0.01267  Uiso   1.00
O5943  O     0.88434   0.15683   0.61931   0.01267  Uiso   1.00
O5944  O     0.88236   0.28576   0.61299   0.01267  Uiso   1.00
O5945  O     0.87996   0.41708   0.61246   0.01267  Uiso   1.00
O5946  O     0.83963   0.15614   0.62266   0.01267  Uiso   1.00
O5947  O     0.83772   0.28201   0.61263   0.01267  Uiso   1.00
O5948  O     0.83938   0.41390   0.61219   0.01267  Uiso   1.00
O5949  O     0.99939   0.23485   0.65660   0.01267  Uiso   1.00
O5950  O     0.99816   0.42453   0.65491   0.01267  Uiso   1.00
O5951  O     0.82617   0.34559   0.74509   0.01267  Uiso   1.00
O5952  O     0.83875   0.34782   0.77900   0.01267  Uiso   1.00
O5953  O     0.85987   0.33971   0.60217   0.01267  Uiso   1.00
O5954  O     0.88092   0.35101   0.77927   0.01267  Uiso   1.00
O5955  O     0.87750   0.34243   0.74069   0.01267  Uiso   1.00
O5956  O     0.85199   0.32609   0.74634   0.01267  Uiso   1.00
O5957  O     0.82616   0.11649   0.75024   0.01267  Uiso   1.00
O5958  O     0.83828   0.13126   0.78410   0.01267  Uiso   1.00
O5959  O     0.86137   0.13647   0.60178   0.01267  Uiso   1.00
O5960  O     0.88329   0.12100   0.78152   0.01267  Uiso   1.00
O5961  O     0.87729   0.12219   0.74317   0.01267  Uiso   1.00
O5962  O     0.85208   0.13608   0.75095   0.01267  Uiso   1.00
O5963  O     0.83569   0.23376   0.75968   0.01267  Uiso   1.00
O5964  O     0.88322   0.23424   0.76163   0.01267  Uiso   1.00
O5965  O     0.81439   0.41036   0.71590   0.01267  Uiso   1.00
O5966  O     0.81754   0.28017   0.71320   0.01267  Uiso   1.00
O5967  O     0.82031   0.14893   0.71301   0.01267  Uiso   1.00
O5968  O     0.86113   0.41167   0.71950   0.01267  Uiso   1.00
O5969  O     0.86335   0.28126   0.71366   0.01267  Uiso   1.00
O5970  O     0.86068   0.14952   0.71386   0.01267  Uiso   1.00
O5971  O     0.90106   0.32947   0.75516   0.01267  Uiso   1.00
O5972  O     0.90166   0.14318   0.75489   0.01267  Uiso   1.00
O5973  O     0.88671   0.53297   0.62673   0.01267  Uiso   1.00
O5974  O     0.83802   0.53056   0.62803   0.01267  Uiso   1.00
O5975  O     0.85457   0.53483   0.71211   0.01267  Uiso   1.00
O5976  O     0.82141   0.53464   0.70960   0.01267  Uiso   1.00
O5977  O     0.81327   0.03307   0.72711   0.01267  Uiso   1.00
O5978  O     0.86031   0.03147   0.73052   0.01267  Uiso   1.00
O5979  O     0.84491   0.03735   0.61008   0.01267  Uiso   1.00
O5980  O     0.87765   0.03542   0.60994   0.01267  Uiso   1.00
O5981  O     0.91330   0.03329   0.76819   0.01267  Uiso   1.00
O5982  O     0.96012   0.03549   0.76473   0.01267  Uiso   1.00
O5983  O     0.94459   0.03235   0.68530   0.01267  Uiso   1.00
O5984  O     0.97807   0.03363   0.68531   0.01267  Uiso   1.00
O5985  O     0.98653   0.53477   0.66797   0.01267  Uiso   1.00
O5986  O     0.93963   0.53603   0.66527   0.01267  Uiso   1.00
O5987  O     0.95523   0.53143   0.78424   0.01267  Uiso   1.00
O5988  O     0.92171   0.53284   0.78512   0.01267  Uiso   1.00
H5989  H     0.87836   0.61034   0.69640   0.01267  Uiso   1.00
H5990  H     0.91803   0.56025   0.68748   0.01267  Uiso   1.00
H5991  H     0.89611   0.60087   0.67473   0.01267  Uiso   1.00
H5992  H     0.87928   0.58796   0.73030   0.01267  Uiso   1.00
H5993  H     0.90054   0.54786   0.74554   0.01267  Uiso   1.00
H5994  H     0.92017   0.53368   0.72346   0.01267  Uiso   1.00
C5995  C     0.91084   0.55093   0.71750   0.01267  Uiso   1.00
C5996  C     0.90975   0.56565   0.69745   0.01267  Uiso   1.00
C5997  C     0.89783   0.58779   0.69009   0.01267  Uiso   1.00
C5998  C     0.88823   0.58054   0.72178   0.01267  Uiso   1.00
C5999  C     0.89996   0.55859   0.72983   0.01267  Uiso   1.00
N6000  N     0.88749   0.59435   0.70234   0.01267  Uiso   1.00
Si6001 Si    0.08561   0.84225   0.83009   0.01267  Uiso   1.00
Si6002 Si    0.06278   0.81360   0.86027   0.01267  Uiso   1.00
Si6003 Si    0.05583   0.84479   0.90339   0.01267  Uiso   1.00
Si6004 Si    0.02475   0.84618   0.90399   0.01267  Uiso   1.00
Si6005 Si    0.01407   0.81247   0.86182   0.01267  Uiso   1.00
Si6006 Si    0.03775   0.85034   0.83538   0.01267  Uiso   1.00
Si6007 Si    0.05332   0.61381   0.90670   0.01267  Uiso   1.00
Si6008 Si    0.02279   0.61254   0.90363   0.01267  Uiso   1.00
Si6009 Si    0.01342   0.65538   0.86086   0.01267  Uiso   1.00
Si6010 Si    0.03728   0.60581   0.83693   0.01267  Uiso   1.00
Si6011 Si    0.01616   0.72596   0.93282   0.01267  Uiso   1.00
Si6012 Si    0.03725   0.75636   0.96392   0.01267  Uiso   1.00
Si6013 Si    0.04379   0.72491   0.80809   0.01267  Uiso   1.00
Si6014 Si    0.07525   0.72020   0.80453   0.01267  Uiso   1.00
Si6015 Si    0.08454   0.75344   0.96158   0.01267  Uiso   1.00
Si6016 Si    0.06086   0.72720   0.93492   0.01267  Uiso   1.00
Si6017 Si    0.01539   0.95611   0.93338   0.01267  Uiso   1.00
Si6018 Si    0.03782   0.91458   0.96251   0.01267  Uiso   1.00
Si6019 Si    0.04574   0.95877   0.80524   0.01267  Uiso   1.00
Si6020 Si    0.07637   0.95824   0.80332   0.01267  Uiso   1.00
Si6021 Si    0.08589   0.91164   0.96112   0.01267  Uiso   1.00
Si6022 Si    0.06224   0.95289   0.93494   0.01267  Uiso   1.00
Si6023 Si    0.11519   0.33982   0.96571   0.01267  Uiso   1.00
Si6024 Si    0.13830   0.31154   0.93588   0.01267  Uiso   1.00
Si6025 Si    0.14378   0.34875   0.89231   0.01267  Uiso   1.00
Si6026 Si    0.17535   0.34962   0.89268   0.01267  Uiso   1.00
Si6027 Si    0.18542   0.31200   0.93485   0.01267  Uiso   1.00
Si6028 Si    0.16293   0.33679   0.96427   0.01267  Uiso   1.00
Si6029 Si    0.11525   0.11132   0.96325   0.01267  Uiso   1.00
Si6030 Si    0.13833   0.15455   0.93438   0.01267  Uiso   1.00
Si6031 Si    0.14591   0.10962   0.89171   0.01267  Uiso   1.00
Si6032 Si    0.17663   0.10913   0.89336   0.01267  Uiso   1.00
Si6033 Si    0.18622   0.15438   0.93533   0.01267  Uiso   1.00
Si6034 Si    0.16257   0.11429   0.96166   0.01267  Uiso   1.00
Si6035 Si    0.18502   0.22684   0.86654   0.01267  Uiso   1.00
Si6036 Si    0.16174   0.25522   0.83712   0.01267  Uiso   1.00
Si6037 Si    0.15600   0.21915   0.99322   0.01267  Uiso   1.00
Si6038 Si    0.12432   0.21829   0.99315   0.01267  Uiso   1.00
Si6039 Si    0.11441   0.25572   0.83571   0.01267  Uiso   1.00
Si6040 Si    0.13677   0.22759   0.86509   0.01267  Uiso   1.00
Si6041 Si    0.18450   0.45707   0.86266   0.01267  Uiso   1.00
Si6042 Si    0.16165   0.41398   0.83388   0.01267  Uiso   1.00
Si6043 Si    0.15388   0.45421   0.99068   0.01267  Uiso   1.00
Si6044 Si    0.12311   0.45652   0.99276   0.01267  Uiso   1.00
Si6045 Si    0.11366   0.41346   0.83542   0.01267  Uiso   1.00
Si6046 Si    0.13740   0.45749   0.86093   0.01267  Uiso   1.00
Si6047 Si    0.11403   0.72581   0.96664   0.01267  Uiso   1.00
Si6048 Si    0.13718   0.75373   0.93673   0.01267  Uiso   1.00
Si6049 Si    0.14407   0.72051   0.89376   0.01267  Uiso   1.00
Si6050 Si    0.17531   0.72011   0.89205   0.01267  Uiso   1.00
Si6051 Si    0.18627   0.75573   0.93380   0.01267  Uiso   1.00
Si6052 Si    0.16312   0.72372   0.96221   0.01267  Uiso   1.00
Si6053 Si    0.11522   0.95587   0.96240   0.01267  Uiso   1.00
Si6054 Si    0.13766   0.91329   0.93321   0.01267  Uiso   1.00
Si6055 Si    0.14614   0.95420   0.89068   0.01267  Uiso   1.00
Si6056 Si    0.17689   0.95655   0.89215   0.01267  Uiso   1.00
Si6057 Si    0.18641   0.91313   0.93451   0.01267  Uiso   1.00
Si6058 Si    0.16218   0.95772   0.95950   0.01267  Uiso   1.00
Si6059 Si    0.18425   0.84128   0.86354   0.01267  Uiso   1.00
Si6060 Si    0.16226   0.81123   0.83372   0.01267  Uiso   1.00
Si6061 Si    0.15608   0.84424   0.98947   0.01267  Uiso   1.00
Si6062 Si    0.12487   0.84689   0.99162   0.01267  Uiso   1.00
Si6063 Si    0.13824   0.83795   0.86343   0.01267  Uiso   1.00
Si6064 Si    0.18433   0.61201   0.86209   0.01267  Uiso   1.00
Si6065 Si    0.16208   0.65359   0.83289   0.01267  Uiso   1.00
Si6066 Si    0.15410   0.60952   0.98974   0.01267  Uiso   1.00
Si6067 Si    0.12355   0.60919   0.99246   0.01267  Uiso   1.00
Si6068 Si    0.13812   0.61528   0.86135   0.01267  Uiso   1.00
Si6069 Si    0.08470   0.22929   0.82975   0.01267  Uiso   1.00
Si6070 Si    0.06142   0.25959   0.85988   0.01267  Uiso   1.00
Si6071 Si    0.05630   0.21824   0.90313   0.01267  Uiso   1.00
Si6072 Si    0.02475   0.21795   0.90261   0.01267  Uiso   1.00
Si6073 Si    0.01461   0.25459   0.86060   0.01267  Uiso   1.00
Si6074 Si    0.03712   0.23048   0.83100   0.01267  Uiso   1.00
Si6075 Si    0.08454   0.45578   0.83236   0.01267  Uiso   1.00
Si6076 Si    0.05350   0.45921   0.90399   0.01267  Uiso   1.00
Si6077 Si    0.02292   0.45901   0.90175   0.01267  Uiso   1.00
Si6078 Si    0.01358   0.41176   0.85996   0.01267  Uiso   1.00
Si6079 Si    0.03687   0.45258   0.83284   0.01267  Uiso   1.00
Si6080 Si    0.01489   0.34132   0.92827   0.01267  Uiso   1.00
Si6081 Si    0.03816   0.31292   0.95752   0.01267  Uiso   1.00
Si6082 Si    0.04397   0.34608   0.80155   0.01267  Uiso   1.00
Si6083 Si    0.07565   0.34841   0.80181   0.01267  Uiso   1.00
Si6084 Si    0.08566   0.31349   0.95932   0.01267  Uiso   1.00
Si6085 Si    0.06326   0.34015   0.92998   0.01267  Uiso   1.00
Si6086 Si    0.01536   0.11047   0.93276   0.01267  Uiso   1.00
Si6087 Si    0.03812   0.15440   0.96122   0.01267  Uiso   1.00
Si6088 Si    0.04602   0.11509   0.80448   0.01267  Uiso   1.00
Si6089 Si    0.07662   0.11234   0.80309   0.01267  Uiso   1.00
Si6090 Si    0.08628   0.15524   0.96035   0.01267  Uiso   1.00
Si6091 Si    0.06256   0.10986   0.93460   0.01267  Uiso   1.00
Si6092 Si    0.11557   0.81298   0.83426   0.01267  Uiso   1.00
Si6093 Si    0.11464   0.65490   0.83477   0.01267  Uiso   1.00
Si6094 Si    0.08492   0.60995   0.83394   0.01267  Uiso   1.00
Si6095 Si    0.06110   0.41691   0.86129   0.01267  Uiso   1.00
Al6096 Al    0.06188   0.65046   0.86330   0.01267  Uiso   1.00
O6097  O     0.07568   0.84207   0.84861   0.01267  Uiso   1.00
O6098  O     0.06408   0.83937   0.88312   0.01267  Uiso   1.00
O6099  O     0.04020   0.84616   0.89845   0.01267  Uiso   1.00
O6100  O     0.01593   0.83841   0.88432   0.01267  Uiso   1.00
O6101  O     0.02378   0.85166   0.84697   0.01267  Uiso   1.00
O6102  O     0.04980   0.84927   0.85087   0.01267  Uiso   1.00
O6103  O     0.07596   0.61481   0.85315   0.01267  Uiso   1.00
O6104  O     0.06328   0.63255   0.88899   0.01267  Uiso   1.00
O6105  O     0.03821   0.63325   0.90155   0.01267  Uiso   1.00
O6106  O     0.01542   0.62562   0.88292   0.01267  Uiso   1.00
O6107  O     0.02216   0.61659   0.84471   0.01267  Uiso   1.00
O6108  O     0.04751   0.61507   0.85451   0.01267  Uiso   1.00
O6109  O     0.06188   0.73502   0.85882   0.01267  Uiso   1.00
O6110  O     0.01719   0.73364   0.86075   0.01267  Uiso   1.00
O6111  O     0.08473   0.91280   0.81843   0.01267  Uiso   1.00
O6112  O     0.08288   0.78221   0.81461   0.01267  Uiso   1.00
O6113  O     0.07939   0.65082   0.81488   0.01267  Uiso   1.00
O6114  O     0.03838   0.91857   0.82261   0.01267  Uiso   1.00
O6115  O     0.03810   0.78664   0.82078   0.01267  Uiso   1.00
O6116  O     0.03987   0.65518   0.81820   0.01267  Uiso   1.00
O6117  O     0.19895   0.82722   0.85552   0.01267  Uiso   1.00
O6118  O     0.19797   0.64633   0.85521   0.01267  Uiso   1.00
O6119  O     0.02556   0.71887   0.95202   0.01267  Uiso   1.00
O6120  O     0.03734   0.72780   0.98616   0.01267  Uiso   1.00
O6121  O     0.05961   0.73234   0.80610   0.01267  Uiso   1.00
O6122  O     0.07963   0.71593   0.98143   0.01267  Uiso   1.00
O6123  O     0.07601   0.72869   0.94268   0.01267  Uiso   1.00
O6124  O     0.05139   0.74236   0.95356   0.01267  Uiso   1.00
O6125  O     0.02602   0.95211   0.95107   0.01267  Uiso   1.00
O6126  O     0.03842   0.94513   0.98447   0.01267  Uiso   1.00
O6127  O     0.06103   0.93507   0.80364   0.01267  Uiso   1.00
O6128  O     0.08220   0.95145   0.98112   0.01267  Uiso   1.00
O6129  O     0.07706   0.93936   0.94299   0.01267  Uiso   1.00
O6130  O     0.05179   0.92743   0.95147   0.01267  Uiso   1.00
O6131  O     0.03463   0.83589   0.96351   0.01267  Uiso   1.00
O6132  O     0.08314   0.83306   0.96445   0.01267  Uiso   1.00
O6133  O     0.01592   0.65609   0.92092   0.01267  Uiso   1.00
O6134  O     0.02177   0.78484   0.91883   0.01267  Uiso   1.00
O6135  O     0.02075   0.91604   0.91426   0.01267  Uiso   1.00
O6136  O     0.05801   0.65269   0.92668   0.01267  Uiso   1.00
O6137  O     0.05889   0.78135   0.91755   0.01267  Uiso   1.00
O6138  O     0.06003   0.91306   0.91450   0.01267  Uiso   1.00
O6139  O     0.09966   0.73304   0.95658   0.01267  Uiso   1.00
O6140  O     0.10128   0.92362   0.95570   0.01267  Uiso   1.00
O6141  O     0.12644   0.34312   0.94879   0.01267  Uiso   1.00
O6142  O     0.13903   0.35220   0.91517   0.01267  Uiso   1.00
O6143  O     0.15958   0.33962   0.89095   0.01267  Uiso   1.00
O6144  O     0.17982   0.35087   0.91557   0.01267  Uiso   1.00
O6145  O     0.17737   0.33585   0.95425   0.01267  Uiso   1.00
O6146  O     0.15209   0.31933   0.94752   0.01267  Uiso   1.00
O6147  O     0.12649   0.12021   0.94655   0.01267  Uiso   1.00
O6148  O     0.13883   0.11954   0.91294   0.01267  Uiso   1.00
O6149  O     0.16126   0.13171   0.89339   0.01267  Uiso   1.00
O6150  O     0.18232   0.11284   0.91566   0.01267  Uiso   1.00
O6151  O     0.17740   0.12841   0.95378   0.01267  Uiso   1.00
O6152  O     0.15225   0.14438   0.94566   0.01267  Uiso   1.00
O6153  O     0.13551   0.23348   0.93177   0.01267  Uiso   1.00
O6154  O     0.18352   0.23273   0.93135   0.01267  Uiso   1.00
O6155  O     0.11502   0.41015   0.97746   0.01267  Uiso   1.00
O6156  O     0.11776   0.27968   0.98114   0.01267  Uiso   1.00
O6157  O     0.11978   0.14838   0.98345   0.01267  Uiso   1.00
O6158  O     0.16032   0.41021   0.97321   0.01267  Uiso   1.00
O6159  O     0.16246   0.28235   0.98192   0.01267  Uiso   1.00
O6160  O     0.16050   0.15012   0.98290   0.01267  Uiso   1.00
O6161  O     0.00072   0.33011   0.93871   0.01267  Uiso   1.00
O6162  O     0.00159   0.14229   0.94054   0.01267  Uiso   1.00
O6163  O     0.17397   0.22459   0.84934   0.01267  Uiso   1.00
O6164  O     0.16100   0.21841   0.81589   0.01267  Uiso   1.00
O6165  O     0.14013   0.22621   0.99221   0.01267  Uiso   1.00
O6166  O     0.11935   0.21892   0.81576   0.01267  Uiso   1.00
O6167  O     0.12256   0.22717   0.85440   0.01267  Uiso   1.00
O6168  O     0.14811   0.24252   0.84887   0.01267  Uiso   1.00
O6169  O     0.17359   0.45009   0.84532   0.01267  Uiso   1.00
O6170  O     0.16144   0.44091   0.81136   0.01267  Uiso   1.00
O6171  O     0.13846   0.43394   0.99315   0.01267  Uiso   1.00
O6172  O     0.11704   0.45039   0.81474   0.01267  Uiso   1.00
O6173  O     0.12247   0.44599   0.85302   0.01267  Uiso   1.00
O6174  O     0.14767   0.43158   0.84433   0.01267  Uiso   1.00
O6175  O     0.16385   0.33442   0.83412   0.01267  Uiso   1.00
O6176  O     0.11702   0.33506   0.83340   0.01267  Uiso   1.00
O6177  O     0.18481   0.15787   0.87889   0.01267  Uiso   1.00
O6178  O     0.18252   0.28864   0.88144   0.01267  Uiso   1.00
O6179  O     0.17949   0.41968   0.88260   0.01267  Uiso   1.00
O6180  O     0.13886   0.15540   0.87517   0.01267  Uiso   1.00
O6181  O     0.13683   0.28555   0.88179   0.01267  Uiso   1.00
O6182  O     0.13944   0.41786   0.88163   0.01267  Uiso   1.00
O6183  O     0.09902   0.24052   0.83968   0.01267  Uiso   1.00
O6184  O     0.09827   0.42423   0.84071   0.01267  Uiso   1.00
O6185  O     0.12502   0.72359   0.94934   0.01267  Uiso   1.00
O6186  O     0.13663   0.71987   0.91497   0.01267  Uiso   1.00
O6187  O     0.15978   0.72517   0.89735   0.01267  Uiso   1.00
O6188  O     0.18380   0.72323   0.91220   0.01267  Uiso   1.00
O6189  O     0.17680   0.72140   0.95008   0.01267  Uiso   1.00
O6190  O     0.15099   0.73498   0.94709   0.01267  Uiso   1.00
O6191  O     0.12551   0.94999   0.94416   0.01267  Uiso   1.00
O6192  O     0.13766   0.93537   0.91022   0.01267  Uiso   1.00
O6193  O     0.16150   0.93559   0.89460   0.01267  Uiso   1.00
O6194  O     0.18421   0.94762   0.91316   0.01267  Uiso   1.00
O6195  O     0.17691   0.94675   0.95094   0.01267  Uiso   1.00
O6196  O     0.15159   0.93487   0.94291   0.01267  Uiso   1.00
O6197  O     0.13574   0.83363   0.93513   0.01267  Uiso   1.00
O6198  O     0.18304   0.83463   0.93288   0.01267  Uiso   1.00
O6199  O     0.11433   0.65600   0.97878   0.01267  Uiso   1.00
O6200  O     0.11637   0.78737   0.98167   0.01267  Uiso   1.00
O6201  O     0.12092   0.91748   0.98172   0.01267  Uiso   1.00
O6202  O     0.16173   0.65241   0.97315   0.01267  Uiso   1.00
O6203  O     0.16354   0.78351   0.97833   0.01267  Uiso   1.00
O6204  O     0.16005   0.91483   0.97956   0.01267  Uiso   1.00
O6205  O     0.00138   0.74324   0.94019   0.01267  Uiso   1.00
O6206  O     0.00158   0.92438   0.94110   0.01267  Uiso   1.00
O6207  O     0.17457   0.84670   0.84457   0.01267  Uiso   1.00
O6208  O     0.16045   0.84616   0.81239   0.01267  Uiso   1.00
O6209  O     0.14032   0.83186   0.98769   0.01267  Uiso   1.00
O6210  O     0.12170   0.85033   0.81500   0.01267  Uiso   1.00
O6211  O     0.12374   0.83465   0.85374   0.01267  Uiso   1.00
O6212  O     0.14900   0.82034   0.84663   0.01267  Uiso   1.00
O6213  O     0.17406   0.61622   0.84383   0.01267  Uiso   1.00
O6214  O     0.16059   0.62156   0.81120   0.01267  Uiso   1.00
O6215  O     0.13875   0.63267   0.98997   0.01267  Uiso   1.00
O6216  O     0.11943   0.61365   0.81549   0.01267  Uiso   1.00
O6217  O     0.12328   0.63111   0.85378   0.01267  Uiso   1.00
O6218  O     0.14848   0.64207   0.84507   0.01267  Uiso   1.00
O6219  O     0.16507   0.73232   0.83113   0.01267  Uiso   1.00
O6220  O     0.11686   0.73334   0.83064   0.01267  Uiso   1.00
O6221  O     0.18393   0.91087   0.87559   0.01267  Uiso   1.00
O6222  O     0.17925   0.78135   0.87774   0.01267  Uiso   1.00
O6223  O     0.17822   0.64987   0.88123   0.01267  Uiso   1.00
O6224  O     0.14070   0.91203   0.87203   0.01267  Uiso   1.00
O6225  O     0.13910   0.78430   0.88128   0.01267  Uiso   1.00
O6226  O     0.14037   0.65177   0.88244   0.01267  Uiso   1.00
O6227  O     0.10054   0.83442   0.83818   0.01267  Uiso   1.00
O6228  O     0.09951   0.63868   0.83983   0.01267  Uiso   1.00
O6229  O     0.07376   0.23337   0.84700   0.01267  Uiso   1.00
O6230  O     0.06080   0.21641   0.88015   0.01267  Uiso   1.00
O6231  O     0.04049   0.22745   0.90473   0.01267  Uiso   1.00
O6232  O     0.02045   0.21506   0.87961   0.01267  Uiso   1.00
O6233  O     0.02267   0.23339   0.84098   0.01267  Uiso   1.00
O6234  O     0.04792   0.24988   0.84759   0.01267  Uiso   1.00
O6235  O     0.07360   0.44695   0.84951   0.01267  Uiso   1.00
O6236  O     0.06043   0.45456   0.88244   0.01267  Uiso   1.00
O6237  O     0.03824   0.43554   0.90246   0.01267  Uiso   1.00
O6238  O     0.01766   0.45520   0.87919   0.01267  Uiso   1.00
O6239  O     0.02228   0.43391   0.84107   0.01267  Uiso   1.00
O6240  O     0.04758   0.42840   0.84920   0.01267  Uiso   1.00
O6241  O     0.06321   0.33781   0.86505   0.01267  Uiso   1.00
O6242  O     0.01595   0.33371   0.86482   0.01267  Uiso   1.00
O6243  O     0.08434   0.15683   0.81931   0.01267  Uiso   1.00
O6244  O     0.08236   0.28576   0.81299   0.01267  Uiso   1.00
O6245  O     0.07996   0.41708   0.81246   0.01267  Uiso   1.00
O6246  O     0.03963   0.15614   0.82266   0.01267  Uiso   1.00
O6247  O     0.03772   0.28201   0.81263   0.01267  Uiso   1.00
O6248  O     0.03938   0.41390   0.81219   0.01267  Uiso   1.00
O6249  O     0.19939   0.23485   0.85660   0.01267  Uiso   1.00
O6250  O     0.19816   0.42453   0.85491   0.01267  Uiso   1.00
O6251  O     0.02617   0.34559   0.94509   0.01267  Uiso   1.00
O6252  O     0.03875   0.34782   0.97900   0.01267  Uiso   1.00
O6253  O     0.05987   0.33971   0.80217   0.01267  Uiso   1.00
O6254  O     0.08092   0.35101   0.97927   0.01267  Uiso   1.00
O6255  O     0.07750   0.34243   0.94069   0.01267  Uiso   1.00
O6256  O     0.05199   0.32609   0.94634   0.01267  Uiso   1.00
O6257  O     0.02616   0.11649   0.95024   0.01267  Uiso   1.00
O6258  O     0.03828   0.13126   0.98410   0.01267  Uiso   1.00
O6259  O     0.06137   0.13647   0.80178   0.01267  Uiso   1.00
O6260  O     0.08329   0.12100   0.98152   0.01267  Uiso   1.00
O6261  O     0.07729   0.12219   0.94317   0.01267  Uiso   1.00
O6262  O     0.05208   0.13608   0.95095   0.01267  Uiso   1.00
O6263  O     0.03569   0.23376   0.95968   0.01267  Uiso   1.00
O6264  O     0.08322   0.23424   0.96163   0.01267  Uiso   1.00
O6265  O     0.01439   0.41036   0.91590   0.01267  Uiso   1.00
O6266  O     0.01754   0.28017   0.91320   0.01267  Uiso   1.00
O6267  O     0.02031   0.14893   0.91301   0.01267  Uiso   1.00
O6268  O     0.06113   0.41167   0.91950   0.01267  Uiso   1.00
O6269  O     0.06335   0.28126   0.91366   0.01267  Uiso   1.00
O6270  O     0.06068   0.14952   0.91386   0.01267  Uiso   1.00
O6271  O     0.10106   0.32947   0.95516   0.01267  Uiso   1.00
O6272  O     0.10166   0.14318   0.95489   0.01267  Uiso   1.00
O6273  O     0.08671   0.53297   0.82673   0.01267  Uiso   1.00
O6274  O     0.03802   0.53056   0.82803   0.01267  Uiso   1.00
O6275  O     0.05457   0.53483   0.91211   0.01267  Uiso   1.00
O6276  O     0.02141   0.53464   0.90960   0.01267  Uiso   1.00
O6277  O     0.01327   0.03307   0.92711   0.01267  Uiso   1.00
O6278  O     0.06031   0.03147   0.93052   0.01267  Uiso   1.00
O6279  O     0.04491   0.03735   0.81008   0.01267  Uiso   1.00
O6280  O     0.07765   0.03542   0.80994   0.01267  Uiso   1.00
O6281  O     0.11330   0.03329   0.96819   0.01267  Uiso   1.00
O6282  O     0.16012   0.03549   0.96473   0.01267  Uiso   1.00
O6283  O     0.14459   0.03235   0.88530   0.01267  Uiso   1.00
O6284  O     0.17807   0.03363   0.88531   0.01267  Uiso   1.00
O6285  O     0.18653   0.53477   0.86797   0.01267  Uiso   1.00
O6286  O     0.13963   0.53603   0.86527   0.01267  Uiso   1.00
O6287  O     0.15523   0.53143   0.98424   0.01267  Uiso   1.00
O6288  O     0.12171   0.53284   0.98512   0.01267  Uiso   1.00
H6289  H     0.07836   0.61034   0.89640   0.01267  Uiso   1.00
H6290  H     0.11803   0.56025   0.88748   0.01267  Uiso   1.00
H6291  H     0.09611   0.60087   0.87473   0.01267  Uiso   1.00
H6292  H     0.07928   0.58796   0.93030   0.01267  Uiso   1.00
H6293  H     0.10054   0.54786   0.94554   0.01267  Uiso   1.00
H6294  H     0.12017   0.53368   0.92346   0.01267  Uiso   1.00
C6295  C     0.11084   0.55093   0.91750   0.01267  Uiso   1.00
C6296  C     0.10975   0.56565   0.89745   0.01267  Uiso   1.00
C6297  C     0.09783   0.58779   0.89009   0.01267  Uiso   1.00
C6298  C     0.08823   0.58054   0.92178   0.01267  Uiso   1.00
C6299  C     0.09996   0.55859   0.92983   0.01267  Uiso   1.00
N6300  N     0.08749   0.59435   0.90234   0.01267  Uiso   1.00
Si6301 Si    0.28561   0.84225   0.83009   0.01267  Uiso   1.00
Si6302 Si    0.26278   0.81360   0.86027   0.01267  Uiso   1.00
Si6303 Si    0.25583   0.84479   0.90339   0.01267  Uiso   1.00
Si6304 Si    0.22475   0.84618   0.90399   0.01267  Uiso   1.00
Si6305 Si    0.21407   0.81247   0.86182   0.01267  Uiso   1.00
Si6306 Si    0.23775   0.85034   0.83538   0.01267  Uiso   1.00
Si6307 Si    0.25332   0.61381   0.90670   0.01267  Uiso   1.00
Si6308 Si    0.22279   0.61254   0.90363   0.01267  Uiso   1.00
Si6309 Si    0.21342   0.65538   0.86086   0.01267  Uiso   1.00
Si6310 Si    0.23728   0.60581   0.83693   0.01267  Uiso   1.00
Si6311 Si    0.21616   0.72596   0.93282   0.01267  Uiso   1.00
Si6312 Si    0.23725   0.75636   0.96392   0.01267  Uiso   1.00
Si6313 Si    0.24379   0.72491   0.80809   0.01267  Uiso   1.00
Si6314 Si    0.27525   0.72020   0.80453   0.01267  Uiso   1.00
Si6315 Si    0.28454   0.75344   0.96158   0.01267  Uiso   1.00
Si6316 Si    0.26086   0.72720   0.93492   0.01267  Uiso   1.00
Si6317 Si    0.21539   0.95611   0.93338   0.01267  Uiso   1.00
Si6318 Si    0.23782   0.91458   0.96251   0.01267  Uiso   1.00
Si6319 Si    0.24574   0.95877   0.80524   0.01267  Uiso   1.00
Si6320 Si    0.27637   0.95824   0.80332   0.01267  Uiso   1.00
Si6321 Si    0.28589   0.91164   0.96112   0.01267  Uiso   1.00
Si6322 Si    0.26224   0.95289   0.93494   0.01267  Uiso   1.00
Si6323 Si    0.31519   0.33982   0.96571   0.01267  Uiso   1.00
Si6324 Si    0.33830   0.31154   0.93588   0.01267  Uiso   1.00
Si6325 Si    0.34378   0.34875   0.89231   0.01267  Uiso   1.00
Si6326 Si    0.37535   0.34962   0.89268   0.01267  Uiso   1.00
Si6327 Si    0.38542   0.31200   0.93485   0.01267  Uiso   1.00
Si6328 Si    0.36293   0.33679   0.96427   0.01267  Uiso   1.00
Si6329 Si    0.31525   0.11132   0.96325   0.01267  Uiso   1.00
Si6330 Si    0.33833   0.15455   0.93438   0.01267  Uiso   1.00
Si6331 Si    0.34591   0.10962   0.89171   0.01267  Uiso   1.00
Si6332 Si    0.37663   0.10913   0.89336   0.01267  Uiso   1.00
Si6333 Si    0.38622   0.15438   0.93533   0.01267  Uiso   1.00
Si6334 Si    0.36257   0.11429   0.96166   0.01267  Uiso   1.00
Si6335 Si    0.38502   0.22684   0.86654   0.01267  Uiso   1.00
Si6336 Si    0.36174   0.25522   0.83712   0.01267  Uiso   1.00
Si6337 Si    0.35600   0.21915   0.99322   0.01267  Uiso   1.00
Si6338 Si    0.32432   0.21829   0.99315   0.01267  Uiso   1.00
Si6339 Si    0.31441   0.25572   0.83571   0.01267  Uiso   1.00
Si6340 Si    0.33677   0.22759   0.86509   0.01267  Uiso   1.00
Si6341 Si    0.38450   0.45707   0.86266   0.01267  Uiso   1.00
Si6342 Si    0.36165   0.41398   0.83388   0.01267  Uiso   1.00
Si6343 Si    0.35388   0.45421   0.99068   0.01267  Uiso   1.00
Si6344 Si    0.32311   0.45652   0.99276   0.01267  Uiso   1.00
Si6345 Si    0.31366   0.41346   0.83542   0.01267  Uiso   1.00
Si6346 Si    0.33740   0.45749   0.86093   0.01267  Uiso   1.00
Si6347 Si    0.31403   0.72581   0.96664   0.01267  Uiso   1.00
Si6348 Si    0.33718   0.75373   0.93673   0.01267  Uiso   1.00
Si6349 Si    0.34407   0.72051   0.89376   0.01267  Uiso   1.00
Si6350 Si    0.37531   0.72011   0.89205   0.01267  Uiso   1.00
Si6351 Si    0.38627   0.75573   0.93380   0.01267  Uiso   1.00
Si6352 Si    0.36312   0.72372   0.96221   0.01267  Uiso   1.00
Si6353 Si    0.31522   0.95587   0.96240   0.01267  Uiso   1.00
Si6354 Si    0.33766   0.91329   0.93321   0.01267  Uiso   1.00
Si6355 Si    0.34614   0.95420   0.89068   0.01267  Uiso   1.00
Si6356 Si    0.37689   0.95655   0.89215   0.01267  Uiso   1.00
Si6357 Si    0.38641   0.91313   0.93451   0.01267  Uiso   1.00
Si6358 Si    0.36218   0.95772   0.95950   0.01267  Uiso   1.00
Si6359 Si    0.38425   0.84128   0.86354   0.01267  Uiso   1.00
Si6360 Si    0.36226   0.81123   0.83372   0.01267  Uiso   1.00
Si6361 Si    0.35608   0.84424   0.98947   0.01267  Uiso   1.00
Si6362 Si    0.32487   0.84689   0.99162   0.01267  Uiso   1.00
Si6363 Si    0.33824   0.83795   0.86343   0.01267  Uiso   1.00
Si6364 Si    0.38433   0.61201   0.86209   0.01267  Uiso   1.00
Si6365 Si    0.36208   0.65359   0.83289   0.01267  Uiso   1.00
Si6366 Si    0.35410   0.60952   0.98974   0.01267  Uiso   1.00
Si6367 Si    0.32355   0.60919   0.99246   0.01267  Uiso   1.00
Si6368 Si    0.33812   0.61528   0.86135   0.01267  Uiso   1.00
Si6369 Si    0.28470   0.22929   0.82975   0.01267  Uiso   1.00
Si6370 Si    0.26142   0.25959   0.85988   0.01267  Uiso   1.00
Si6371 Si    0.25630   0.21824   0.90313   0.01267  Uiso   1.00
Si6372 Si    0.22475   0.21795   0.90261   0.01267  Uiso   1.00
Si6373 Si    0.21461   0.25459   0.86060   0.01267  Uiso   1.00
Si6374 Si    0.23712   0.23048   0.83100   0.01267  Uiso   1.00
Si6375 Si    0.28454   0.45578   0.83236   0.01267  Uiso   1.00
Si6376 Si    0.25350   0.45921   0.90399   0.01267  Uiso   1.00
Si6377 Si    0.22292   0.45901   0.90175   0.01267  Uiso   1.00
Si6378 Si    0.21358   0.41176   0.85996   0.01267  Uiso   1.00
Si6379 Si    0.23687   0.45258   0.83284   0.01267  Uiso   1.00
Si6380 Si    0.21489   0.34132   0.92827   0.01267  Uiso   1.00
Si6381 Si    0.23816   0.31292   0.95752   0.01267  Uiso   1.00
Si6382 Si    0.24397   0.34608   0.80155   0.01267  Uiso   1.00
Si6383 Si    0.27565   0.34841   0.80181   0.01267  Uiso   1.00
Si6384 Si    0.28566   0.31349   0.95932   0.01267  Uiso   1.00
Si6385 Si    0.26326   0.34015   0.92998   0.01267  Uiso   1.00
Si6386 Si    0.21536   0.11047   0.93276   0.01267  Uiso   1.00
Si6387 Si    0.23812   0.15440   0.96122   0.01267  Uiso   1.00
Si6388 Si    0.24602   0.11509   0.80448   0.01267  Uiso   1.00
Si6389 Si    0.27662   0.11234   0.80309   0.01267  Uiso   1.00
Si6390 Si    0.28628   0.15524   0.96035   0.01267  Uiso   1.00
Si6391 Si    0.26256   0.10986   0.93460   0.01267  Uiso   1.00
Si6392 Si    0.31557   0.81298   0.83426   0.01267  Uiso   1.00
Si6393 Si    0.31464   0.65490   0.83477   0.01267  Uiso   1.00
Si6394 Si    0.28492   0.60995   0.83394   0.01267  Uiso   1.00
Si6395 Si    0.26110   0.41691   0.86129   0.01267  Uiso   1.00
Al6396 Al    0.26188   0.65046   0.86330   0.01267  Uiso   1.00
O6397  O     0.27568   0.84207   0.84861   0.01267  Uiso   1.00
O6398  O     0.26408   0.83937   0.88312   0.01267  Uiso   1.00
O6399  O     0.24020   0.84616   0.89845   0.01267  Uiso   1.00
O6400  O     0.21593   0.83841   0.88432   0.01267  Uiso   1.00
O6401  O     0.22378   0.85166   0.84697   0.01267  Uiso   1.00
O6402  O     0.24980   0.84927   0.85087   0.01267  Uiso   1.00
O6403  O     0.27596   0.61481   0.85315   0.01267  Uiso   1.00
O6404  O     0.26328   0.63255   0.88899   0.01267  Uiso   1.00
O6405  O     0.23821   0.63325   0.90155   0.01267  Uiso   1.00
O6406  O     0.21542   0.62562   0.88292   0.01267  Uiso   1.00
O6407  O     0.22216   0.61659   0.84471   0.01267  Uiso   1.00
O6408  O     0.24751   0.61507   0.85451   0.01267  Uiso   1.00
O6409  O     0.26188   0.73502   0.85882   0.01267  Uiso   1.00
O6410  O     0.21719   0.73364   0.86075   0.01267  Uiso   1.00
O6411  O     0.28473   0.91280   0.81843   0.01267  Uiso   1.00
O6412  O     0.28288   0.78221   0.81461   0.01267  Uiso   1.00
O6413  O     0.27939   0.65082   0.81488   0.01267  Uiso   1.00
O6414  O     0.23838   0.91857   0.82261   0.01267  Uiso   1.00
O6415  O     0.23810   0.78664   0.82078   0.01267  Uiso   1.00
O6416  O     0.23988   0.65518   0.81820   0.01267  Uiso   1.00
O6417  O     0.39895   0.82722   0.85552   0.01267  Uiso   1.00
O6418  O     0.39797   0.64633   0.85521   0.01267  Uiso   1.00
O6419  O     0.22556   0.71887   0.95202   0.01267  Uiso   1.00
O6420  O     0.23734   0.72780   0.98616   0.01267  Uiso   1.00
O6421  O     0.25961   0.73234   0.80610   0.01267  Uiso   1.00
O6422  O     0.27963   0.71593   0.98143   0.01267  Uiso   1.00
O6423  O     0.27601   0.72869   0.94268   0.01267  Uiso   1.00
O6424  O     0.25139   0.74236   0.95356   0.01267  Uiso   1.00
O6425  O     0.22602   0.95211   0.95107   0.01267  Uiso   1.00
O6426  O     0.23842   0.94513   0.98447   0.01267  Uiso   1.00
O6427  O     0.26103   0.93507   0.80364   0.01267  Uiso   1.00
O6428  O     0.28220   0.95145   0.98112   0.01267  Uiso   1.00
O6429  O     0.27706   0.93936   0.94299   0.01267  Uiso   1.00
O6430  O     0.25179   0.92743   0.95147   0.01267  Uiso   1.00
O6431  O     0.23463   0.83589   0.96351   0.01267  Uiso   1.00
O6432  O     0.28314   0.83306   0.96445   0.01267  Uiso   1.00
O6433  O     0.21592   0.65609   0.92092   0.01267  Uiso   1.00
O6434  O     0.22177   0.78484   0.91883   0.01267  Uiso   1.00
O6435  O     0.22075   0.91604   0.91426   0.01267  Uiso   1.00
O6436  O     0.25801   0.65269   0.92668   0.01267  Uiso   1.00
O6437  O     0.25889   0.78135   0.91755   0.01267  Uiso   1.00
O6438  O     0.26003   0.91306   0.91450   0.01267  Uiso   1.00
O6439  O     0.29966   0.73304   0.95658   0.01267  Uiso   1.00
O6440  O     0.30128   0.92362   0.95570   0.01267  Uiso   1.00
O6441  O     0.32644   0.34312   0.94879   0.01267  Uiso   1.00
O6442  O     0.33903   0.35220   0.91517   0.01267  Uiso   1.00
O6443  O     0.35958   0.33962   0.89095   0.01267  Uiso   1.00
O6444  O     0.37982   0.35087   0.91557   0.01267  Uiso   1.00
O6445  O     0.37737   0.33585   0.95425   0.01267  Uiso   1.00
O6446  O     0.35209   0.31933   0.94752   0.01267  Uiso   1.00
O6447  O     0.32649   0.12021   0.94655   0.01267  Uiso   1.00
O6448  O     0.33883   0.11954   0.91294   0.01267  Uiso   1.00
O6449  O     0.36126   0.13171   0.89339   0.01267  Uiso   1.00
O6450  O     0.38232   0.11284   0.91566   0.01267  Uiso   1.00
O6451  O     0.37740   0.12841   0.95378   0.01267  Uiso   1.00
O6452  O     0.35225   0.14438   0.94566   0.01267  Uiso   1.00
O6453  O     0.33551   0.23348   0.93177   0.01267  Uiso   1.00
O6454  O     0.38352   0.23273   0.93135   0.01267  Uiso   1.00
O6455  O     0.31502   0.41015   0.97746   0.01267  Uiso   1.00
O6456  O     0.31776   0.27968   0.98114   0.01267  Uiso   1.00
O6457  O     0.31978   0.14838   0.98345   0.01267  Uiso   1.00
O6458  O     0.36032   0.41021   0.97321   0.01267  Uiso   1.00
O6459  O     0.36246   0.28235   0.98192   0.01267  Uiso   1.00
O6460  O     0.36050   0.15012   0.98290   0.01267  Uiso   1.00
O6461  O     0.20072   0.33011   0.93871   0.01267  Uiso   1.00
O6462  O     0.20159   0.14229   0.94054   0.01267  Uiso   1.00
O6463  O     0.37397   0.22459   0.84934   0.01267  Uiso   1.00
O6464  O     0.36100   0.21841   0.81589   0.01267  Uiso   1.00
O6465  O     0.34013   0.22621   0.99221   0.01267  Uiso   1.00
O6466  O     0.31935   0.21892   0.81576   0.01267  Uiso   1.00
O6467  O     0.32256   0.22717   0.85440   0.01267  Uiso   1.00
O6468  O     0.34811   0.24252   0.84887   0.01267  Uiso   1.00
O6469  O     0.37359   0.45009   0.84532   0.01267  Uiso   1.00
O6470  O     0.36144   0.44091   0.81136   0.01267  Uiso   1.00
O6471  O     0.33846   0.43394   0.99315   0.01267  Uiso   1.00
O6472  O     0.31704   0.45039   0.81474   0.01267  Uiso   1.00
O6473  O     0.32247   0.44599   0.85302   0.01267  Uiso   1.00
O6474  O     0.34767   0.43158   0.84433   0.01267  Uiso   1.00
O6475  O     0.36385   0.33442   0.83412   0.01267  Uiso   1.00
O6476  O     0.31702   0.33506   0.83340   0.01267  Uiso   1.00
O6477  O     0.38481   0.15787   0.87889   0.01267  Uiso   1.00
O6478  O     0.38252   0.28864   0.88144   0.01267  Uiso   1.00
O6479  O     0.37949   0.41968   0.88260   0.01267  Uiso   1.00
O6480  O     0.33886   0.15540   0.87517   0.01267  Uiso   1.00
O6481  O     0.33683   0.28555   0.88179   0.01267  Uiso   1.00
O6482  O     0.33944   0.41786   0.88163   0.01267  Uiso   1.00
O6483  O     0.29902   0.24052   0.83968   0.01267  Uiso   1.00
O6484  O     0.29827   0.42423   0.84071   0.01267  Uiso   1.00
O6485  O     0.32502   0.72359   0.94934   0.01267  Uiso   1.00
O6486  O     0.33663   0.71987   0.91497   0.01267  Uiso   1.00
O6487  O     0.35978   0.72517   0.89735   0.01267  Uiso   1.00
O6488  O     0.38380   0.72323   0.91220   0.01267  Uiso   1.00
O6489  O     0.37680   0.72140   0.95008   0.01267  Uiso   1.00
O6490  O     0.35099   0.73498   0.94709   0.01267  Uiso   1.00
O6491  O     0.32551   0.94999   0.94416   0.01267  Uiso   1.00
O6492  O     0.33766   0.93537   0.91022   0.01267  Uiso   1.00
O6493  O     0.36150   0.93559   0.89460   0.01267  Uiso   1.00
O6494  O     0.38421   0.94762   0.91316   0.01267  Uiso   1.00
O6495  O     0.37691   0.94675   0.95094   0.01267  Uiso   1.00
O6496  O     0.35159   0.93487   0.94291   0.01267  Uiso   1.00
O6497  O     0.33574   0.83363   0.93513   0.01267  Uiso   1.00
O6498  O     0.38304   0.83463   0.93288   0.01267  Uiso   1.00
O6499  O     0.31433   0.65600   0.97878   0.01267  Uiso   1.00
O6500  O     0.31637   0.78737   0.98167   0.01267  Uiso   1.00
O6501  O     0.32092   0.91748   0.98172   0.01267  Uiso   1.00
O6502  O     0.36173   0.65241   0.97315   0.01267  Uiso   1.00
O6503  O     0.36354   0.78351   0.97833   0.01267  Uiso   1.00
O6504  O     0.36005   0.91483   0.97956   0.01267  Uiso   1.00
O6505  O     0.20138   0.74324   0.94019   0.01267  Uiso   1.00
O6506  O     0.20158   0.92438   0.94110   0.01267  Uiso   1.00
O6507  O     0.37457   0.84670   0.84457   0.01267  Uiso   1.00
O6508  O     0.36045   0.84616   0.81239   0.01267  Uiso   1.00
O6509  O     0.34032   0.83186   0.98769   0.01267  Uiso   1.00
O6510  O     0.32170   0.85033   0.81500   0.01267  Uiso   1.00
O6511  O     0.32374   0.83465   0.85374   0.01267  Uiso   1.00
O6512  O     0.34900   0.82034   0.84663   0.01267  Uiso   1.00
O6513  O     0.37406   0.61622   0.84383   0.01267  Uiso   1.00
O6514  O     0.36059   0.62156   0.81120   0.01267  Uiso   1.00
O6515  O     0.33875   0.63267   0.98997   0.01267  Uiso   1.00
O6516  O     0.31943   0.61365   0.81549   0.01267  Uiso   1.00
O6517  O     0.32328   0.63111   0.85378   0.01267  Uiso   1.00
O6518  O     0.34848   0.64207   0.84507   0.01267  Uiso   1.00
O6519  O     0.36507   0.73232   0.83113   0.01267  Uiso   1.00
O6520  O     0.31686   0.73334   0.83064   0.01267  Uiso   1.00
O6521  O     0.38393   0.91087   0.87559   0.01267  Uiso   1.00
O6522  O     0.37925   0.78135   0.87774   0.01267  Uiso   1.00
O6523  O     0.37822   0.64987   0.88123   0.01267  Uiso   1.00
O6524  O     0.34070   0.91203   0.87203   0.01267  Uiso   1.00
O6525  O     0.33910   0.78430   0.88128   0.01267  Uiso   1.00
O6526  O     0.34037   0.65177   0.88244   0.01267  Uiso   1.00
O6527  O     0.30054   0.83442   0.83818   0.01267  Uiso   1.00
O6528  O     0.29951   0.63868   0.83983   0.01267  Uiso   1.00
O6529  O     0.27376   0.23337   0.84700   0.01267  Uiso   1.00
O6530  O     0.26080   0.21641   0.88015   0.01267  Uiso   1.00
O6531  O     0.24049   0.22745   0.90473   0.01267  Uiso   1.00
O6532  O     0.22045   0.21506   0.87961   0.01267  Uiso   1.00
O6533  O     0.22267   0.23339   0.84098   0.01267  Uiso   1.00
O6534  O     0.24792   0.24988   0.84759   0.01267  Uiso   1.00
O6535  O     0.27360   0.44695   0.84951   0.01267  Uiso   1.00
O6536  O     0.26043   0.45456   0.88244   0.01267  Uiso   1.00
O6537  O     0.23824   0.43554   0.90246   0.01267  Uiso   1.00
O6538  O     0.21766   0.45520   0.87919   0.01267  Uiso   1.00
O6539  O     0.22228   0.43391   0.84107   0.01267  Uiso   1.00
O6540  O     0.24758   0.42840   0.84920   0.01267  Uiso   1.00
O6541  O     0.26321   0.33781   0.86505   0.01267  Uiso   1.00
O6542  O     0.21595   0.33371   0.86482   0.01267  Uiso   1.00
O6543  O     0.28434   0.15683   0.81931   0.01267  Uiso   1.00
O6544  O     0.28236   0.28576   0.81299   0.01267  Uiso   1.00
O6545  O     0.27996   0.41708   0.81246   0.01267  Uiso   1.00
O6546  O     0.23963   0.15614   0.82266   0.01267  Uiso   1.00
O6547  O     0.23772   0.28201   0.81263   0.01267  Uiso   1.00
O6548  O     0.23938   0.41390   0.81219   0.01267  Uiso   1.00
O6549  O     0.39939   0.23485   0.85660   0.01267  Uiso   1.00
O6550  O     0.39816   0.42453   0.85491   0.01267  Uiso   1.00
O6551  O     0.22617   0.34559   0.94509   0.01267  Uiso   1.00
O6552  O     0.23875   0.34782   0.97900   0.01267  Uiso   1.00
O6553  O     0.25987   0.33971   0.80217   0.01267  Uiso   1.00
O6554  O     0.28092   0.35101   0.97927   0.01267  Uiso   1.00
O6555  O     0.27750   0.34243   0.94069   0.01267  Uiso   1.00
O6556  O     0.25199   0.32609   0.94634   0.01267  Uiso   1.00
O6557  O     0.22616   0.11649   0.95024   0.01267  Uiso   1.00
O6558  O     0.23828   0.13126   0.98410   0.01267  Uiso   1.00
O6559  O     0.26137   0.13647   0.80178   0.01267  Uiso   1.00
O6560  O     0.28329   0.12100   0.98152   0.01267  Uiso   1.00
O6561  O     0.27729   0.12219   0.94317   0.01267  Uiso   1.00
O6562  O     0.25208   0.13608   0.95095   0.01267  Uiso   1.00
O6563  O     0.23569   0.23376   0.95968   0.01267  Uiso   1.00
O6564  O     0.28322   0.23424   0.96163   0.01267  Uiso   1.00
O6565  O     0.21439   0.41036   0.91590   0.01267  Uiso   1.00
O6566  O     0.21754   0.28017   0.91320   0.01267  Uiso   1.00
O6567  O     0.22031   0.14893   0.91301   0.01267  Uiso   1.00
O6568  O     0.26113   0.41167   0.91950   0.01267  Uiso   1.00
O6569  O     0.26335   0.28126   0.91366   0.01267  Uiso   1.00
O6570  O     0.26068   0.14952   0.91386   0.01267  Uiso   1.00
O6571  O     0.30106   0.32947   0.95516   0.01267  Uiso   1.00
O6572  O     0.30166   0.14318   0.95489   0.01267  Uiso   1.00
O6573  O     0.28671   0.53297   0.82673   0.01267  Uiso   1.00
O6574  O     0.23802   0.53056   0.82803   0.01267  Uiso   1.00
O6575  O     0.25457   0.53483   0.91211   0.01267  Uiso   1.00
O6576  O     0.22141   0.53464   0.90960   0.01267  Uiso   1.00
O6577  O     0.21327   0.03307   0.92711   0.01267  Uiso   1.00
O6578  O     0.26031   0.03147   0.93052   0.01267  Uiso   1.00
O6579  O     0.24491   0.03735   0.81008   0.01267  Uiso   1.00
O6580  O     0.27765   0.03542   0.80994   0.01267  Uiso   1.00
O6581  O     0.31330   0.03329   0.96819   0.01267  Uiso   1.00
O6582  O     0.36012   0.03549   0.96473   0.01267  Uiso   1.00
O6583  O     0.34459   0.03235   0.88530   0.01267  Uiso   1.00
O6584  O     0.37807   0.03363   0.88531   0.01267  Uiso   1.00
O6585  O     0.38653   0.53477   0.86797   0.01267  Uiso   1.00
O6586  O     0.33963   0.53603   0.86527   0.01267  Uiso   1.00
O6587  O     0.35523   0.53143   0.98424   0.01267  Uiso   1.00
O6588  O     0.32171   0.53284   0.98512   0.01267  Uiso   1.00
H6589  H     0.27836   0.61034   0.89640   0.01267  Uiso   1.00
H6590  H     0.31803   0.56025   0.88748   0.01267  Uiso   1.00
H6591  H     0.29611   0.60087   0.87473   0.01267  Uiso   1.00
H6592  H     0.27928   0.58796   0.93030   0.01267  Uiso   1.00
H6593  H     0.30054   0.54786   0.94554   0.01267  Uiso   1.00
H6594  H     0.32017   0.53368   0.92346   0.01267  Uiso   1.00
C6595  C     0.31084   0.55093   0.91750   0.01267  Uiso   1.00
C6596  C     0.30975   0.56565   0.89745   0.01267  Uiso   1.00
C6597  C     0.29783   0.58779   0.89009   0.01267  Uiso   1.00
C6598  C     0.28823   0.58054   0.92178   0.01267  Uiso   1.00
C6599  C     0.29996   0.55859   0.92983   0.01267  Uiso   1.00
N6600  N     0.28749   0.59435   0.90234   0.01267  Uiso   1.00
Si6601 Si    0.48561   0.84225   0.83009   0.01267  Uiso   1.00
Si6602 Si    0.46278   0.81360   0.86027   0.01267  Uiso   1.00
Si6603 Si    0.45583   0.84479   0.90339   0.01267  Uiso   1.00
Si6604 Si    0.42475   0.84618   0.90399   0.01267  Uiso   1.00
Si6605 Si    0.41407   0.81247   0.86182   0.01267  Uiso   1.00
Si6606 Si    0.43775   0.85034   0.83538   0.01267  Uiso   1.00
Si6607 Si    0.45332   0.61381   0.90670   0.01267  Uiso   1.00
Si6608 Si    0.42279   0.61254   0.90363   0.01267  Uiso   1.00
Si6609 Si    0.41342   0.65538   0.86086   0.01267  Uiso   1.00
Si6610 Si    0.43728   0.60581   0.83693   0.01267  Uiso   1.00
Si6611 Si    0.41616   0.72596   0.93282   0.01267  Uiso   1.00
Si6612 Si    0.43725   0.75636   0.96392   0.01267  Uiso   1.00
Si6613 Si    0.44379   0.72491   0.80809   0.01267  Uiso   1.00
Si6614 Si    0.47525   0.72020   0.80453   0.01267  Uiso   1.00
Si6615 Si    0.48454   0.75344   0.96158   0.01267  Uiso   1.00
Si6616 Si    0.46086   0.72720   0.93492   0.01267  Uiso   1.00
Si6617 Si    0.41539   0.95611   0.93338   0.01267  Uiso   1.00
Si6618 Si    0.43782   0.91458   0.96251   0.01267  Uiso   1.00
Si6619 Si    0.44574   0.95877   0.80524   0.01267  Uiso   1.00
Si6620 Si    0.47637   0.95824   0.80332   0.01267  Uiso   1.00
Si6621 Si    0.48589   0.91164   0.96112   0.01267  Uiso   1.00
Si6622 Si    0.46224   0.95289   0.93494   0.01267  Uiso   1.00
Si6623 Si    0.51519   0.33982   0.96571   0.01267  Uiso   1.00
Si6624 Si    0.53830   0.31154   0.93588   0.01267  Uiso   1.00
Si6625 Si    0.54378   0.34875   0.89231   0.01267  Uiso   1.00
Si6626 Si    0.57535   0.34962   0.89268   0.01267  Uiso   1.00
Si6627 Si    0.58542   0.31200   0.93485   0.01267  Uiso   1.00
Si6628 Si    0.56293   0.33679   0.96427   0.01267  Uiso   1.00
Si6629 Si    0.51525   0.11132   0.96325   0.01267  Uiso   1.00
Si6630 Si    0.53833   0.15455   0.93438   0.01267  Uiso   1.00
Si6631 Si    0.54591   0.10962   0.89171   0.01267  Uiso   1.00
Si6632 Si    0.57663   0.10913   0.89336   0.01267  Uiso   1.00
Si6633 Si    0.58622   0.15438   0.93533   0.01267  Uiso   1.00
Si6634 Si    0.56257   0.11429   0.96166   0.01267  Uiso   1.00
Si6635 Si    0.58502   0.22684   0.86654   0.01267  Uiso   1.00
Si6636 Si    0.56174   0.25522   0.83712   0.01267  Uiso   1.00
Si6637 Si    0.55600   0.21915   0.99322   0.01267  Uiso   1.00
Si6638 Si    0.52432   0.21829   0.99315   0.01267  Uiso   1.00
Si6639 Si    0.51441   0.25572   0.83571   0.01267  Uiso   1.00
Si6640 Si    0.53677   0.22759   0.86509   0.01267  Uiso   1.00
Si6641 Si    0.58450   0.45707   0.86266   0.01267  Uiso   1.00
Si6642 Si    0.56165   0.41398   0.83388   0.01267  Uiso   1.00
Si6643 Si    0.55388   0.45421   0.99068   0.01267  Uiso   1.00
Si6644 Si    0.52311   0.45652   0.99276   0.01267  Uiso   1.00
Si6645 Si    0.51366   0.41346   0.83542   0.01267  Uiso   1.00
Si6646 Si    0.53740   0.45749   0.86093   0.01267  Uiso   1.00
Si6647 Si    0.51403   0.72581   0.96664   0.01267  Uiso   1.00
Si6648 Si    0.53718   0.75373   0.93673   0.01267  Uiso   1.00
Si6649 Si    0.54407   0.72051   0.89376   0.01267  Uiso   1.00
Si6650 Si    0.57531   0.72011   0.89205   0.01267  Uiso   1.00
Si6651 Si    0.58627   0.75573   0.93380   0.01267  Uiso   1.00
Si6652 Si    0.56312   0.72372   0.96221   0.01267  Uiso   1.00
Si6653 Si    0.51522   0.95587   0.96240   0.01267  Uiso   1.00
Si6654 Si    0.53766   0.91329   0.93321   0.01267  Uiso   1.00
Si6655 Si    0.54614   0.95420   0.89068   0.01267  Uiso   1.00
Si6656 Si    0.57689   0.95655   0.89215   0.01267  Uiso   1.00
Si6657 Si    0.58641   0.91313   0.93451   0.01267  Uiso   1.00
Si6658 Si    0.56218   0.95772   0.95950   0.01267  Uiso   1.00
Si6659 Si    0.58425   0.84128   0.86354   0.01267  Uiso   1.00
Si6660 Si    0.56226   0.81123   0.83372   0.01267  Uiso   1.00
Si6661 Si    0.55608   0.84424   0.98947   0.01267  Uiso   1.00
Si6662 Si    0.52487   0.84689   0.99162   0.01267  Uiso   1.00
Si6663 Si    0.53824   0.83795   0.86343   0.01267  Uiso   1.00
Si6664 Si    0.58433   0.61201   0.86209   0.01267  Uiso   1.00
Si6665 Si    0.56208   0.65359   0.83289   0.01267  Uiso   1.00
Si6666 Si    0.55410   0.60952   0.98974   0.01267  Uiso   1.00
Si6667 Si    0.52355   0.60919   0.99246   0.01267  Uiso   1.00
Si6668 Si    0.53812   0.61528   0.86135   0.01267  Uiso   1.00
Si6669 Si    0.48470   0.22929   0.82975   0.01267  Uiso   1.00
Si6670 Si    0.46142   0.25959   0.85988   0.01267  Uiso   1.00
Si6671 Si    0.45630   0.21824   0.90313   0.01267  Uiso   1.00
Si6672 Si    0.42475   0.21795   0.90261   0.01267  Uiso   1.00
Si6673 Si    0.41461   0.25459   0.86060   0.01267  Uiso   1.00
Si6674 Si    0.43712   0.23048   0.83100   0.01267  Uiso   1.00
Si6675 Si    0.48454   0.45578   0.83236   0.01267  Uiso   1.00
Si6676 Si    0.45350   0.45921   0.90399   0.01267  Uiso   1.00
Si6677 Si    0.42292   0.45901   0.90175   0.01267  Uiso   1.00
Si6678 Si    0.41358   0.41176   0.85996   0.01267  Uiso   1.00
Si6679 Si    0.43687   0.45258   0.83284   0.01267  Uiso   1.00
Si6680 Si    0.41489   0.34132   0.92827   0.01267  Uiso   1.00
Si6681 Si    0.43816   0.31292   0.95752   0.01267  Uiso   1.00
Si6682 Si    0.44397   0.34608   0.80155   0.01267  Uiso   1.00
Si6683 Si    0.47565   0.34841   0.80181   0.01267  Uiso   1.00
Si6684 Si    0.48566   0.31349   0.95932   0.01267  Uiso   1.00
Si6685 Si    0.46326   0.34015   0.92998   0.01267  Uiso   1.00
Si6686 Si    0.41536   0.11047   0.93276   0.01267  Uiso   1.00
Si6687 Si    0.43812   0.15440   0.96122   0.01267  Uiso   1.00
Si6688 Si    0.44602   0.11509   0.80448   0.01267  Uiso   1.00
Si6689 Si    0.47662   0.11234   0.80309   0.01267  Uiso   1.00
Si6690 Si    0.48628   0.15524   0.96035   0.01267  Uiso   1.00
Si6691 Si    0.46256   0.10986   0.93460   0.01267  Uiso   1.00
Si6692 Si    0.51557   0.81298   0.83426   0.01267  Uiso   1.00
Si6693 Si    0.51464   0.65490   0.83477   0.01267  Uiso   1.00
Si6694 Si    0.48492   0.60995   0.83394   0.01267  Uiso   1.00
Si6695 Si    0.46110   0.41691   0.86129   0.01267  Uiso   1.00
Al6696 Al    0.46188   0.65046   0.86330   0.01267  Uiso   1.00
O6697  O     0.47568   0.84207   0.84861   0.01267  Uiso   1.00
O6698  O     0.46408   0.83937   0.88312   0.01267  Uiso   1.00
O6699  O     0.44020   0.84616   0.89845   0.01267  Uiso   1.00
O6700  O     0.41593   0.83841   0.88432   0.01267  Uiso   1.00
O6701  O     0.42378   0.85166   0.84697   0.01267  Uiso   1.00
O6702  O     0.44980   0.84927   0.85087   0.01267  Uiso   1.00
O6703  O     0.47596   0.61481   0.85315   0.01267  Uiso   1.00
O6704  O     0.46328   0.63255   0.88899   0.01267  Uiso   1.00
O6705  O     0.43821   0.63325   0.90155   0.01267  Uiso   1.00
O6706  O     0.41542   0.62562   0.88292   0.01267  Uiso   1.00
O6707  O     0.42216   0.61659   0.84471   0.01267  Uiso   1.00
O6708  O     0.44751   0.61507   0.85451   0.01267  Uiso   1.00
O6709  O     0.46188   0.73502   0.85882   0.01267  Uiso   1.00
O6710  O     0.41719   0.73364   0.86075   0.01267  Uiso   1.00
O6711  O     0.48473   0.91280   0.81843   0.01267  Uiso   1.00
O6712  O     0.48288   0.78221   0.81461   0.01267  Uiso   1.00
O6713  O     0.47939   0.65082   0.81488   0.01267  Uiso   1.00
O6714  O     0.43838   0.91857   0.82261   0.01267  Uiso   1.00
O6715  O     0.43810   0.78664   0.82078   0.01267  Uiso   1.00
O6716  O     0.43987   0.65518   0.81820   0.01267  Uiso   1.00
O6717  O     0.59895   0.82722   0.85552   0.01267  Uiso   1.00
O6718  O     0.59797   0.64633   0.85521   0.01267  Uiso   1.00
O6719  O     0.42556   0.71887   0.95202   0.01267  Uiso   1.00
O6720  O     0.43734   0.72780   0.98616   0.01267  Uiso   1.00
O6721  O     0.45961   0.73234   0.80610   0.01267  Uiso   1.00
O6722  O     0.47963   0.71593   0.98143   0.01267  Uiso   1.00
O6723  O     0.47601   0.72869   0.94268   0.01267  Uiso   1.00
O6724  O     0.45139   0.74236   0.95356   0.01267  Uiso   1.00
O6725  O     0.42602   0.95211   0.95107   0.01267  Uiso   1.00
O6726  O     0.43842   0.94513   0.98447   0.01267  Uiso   1.00
O6727  O     0.46103   0.93507   0.80364   0.01267  Uiso   1.00
O6728  O     0.48220   0.95145   0.98112   0.01267  Uiso   1.00
O6729  O     0.47706   0.93936   0.94299   0.01267  Uiso   1.00
O6730  O     0.45179   0.92743   0.95147   0.01267  Uiso   1.00
O6731  O     0.43463   0.83589   0.96351   0.01267  Uiso   1.00
O6732  O     0.48314   0.83306   0.96445   0.01267  Uiso   1.00
O6733  O     0.41592   0.65609   0.92092   0.01267  Uiso   1.00
O6734  O     0.42177   0.78484   0.91883   0.01267  Uiso   1.00
O6735  O     0.42075   0.91604   0.91426   0.01267  Uiso   1.00
O6736  O     0.45801   0.65269   0.92668   0.01267  Uiso   1.00
O6737  O     0.45889   0.78135   0.91755   0.01267  Uiso   1.00
O6738  O     0.46003   0.91306   0.91450   0.01267  Uiso   1.00
O6739  O     0.49966   0.73304   0.95658   0.01267  Uiso   1.00
O6740  O     0.50128   0.92362   0.95570   0.01267  Uiso   1.00
O6741  O     0.52644   0.34312   0.94879   0.01267  Uiso   1.00
O6742  O     0.53903   0.35220   0.91517   0.01267  Uiso   1.00
O6743  O     0.55958   0.33962   0.89095   0.01267  Uiso   1.00
O6744  O     0.57982   0.35087   0.91557   0.01267  Uiso   1.00
O6745  O     0.57737   0.33585   0.95425   0.01267  Uiso   1.00
O6746  O     0.55209   0.31933   0.94752   0.01267  Uiso   1.00
O6747  O     0.52649   0.12021   0.94655   0.01267  Uiso   1.00
O6748  O     0.53883   0.11954   0.91294   0.01267  Uiso   1.00
O6749  O     0.56126   0.13171   0.89339   0.01267  Uiso   1.00
O6750  O     0.58232   0.11284   0.91566   0.01267  Uiso   1.00
O6751  O     0.57740   0.12841   0.95378   0.01267  Uiso   1.00
O6752  O     0.55225   0.14438   0.94566   0.01267  Uiso   1.00
O6753  O     0.53551   0.23348   0.93177   0.01267  Uiso   1.00
O6754  O     0.58352   0.23273   0.93135   0.01267  Uiso   1.00
O6755  O     0.51502   0.41015   0.97746   0.01267  Uiso   1.00
O6756  O     0.51776   0.27968   0.98114   0.01267  Uiso   1.00
O6757  O     0.51978   0.14838   0.98345   0.01267  Uiso   1.00
O6758  O     0.56032   0.41021   0.97321   0.01267  Uiso   1.00
O6759  O     0.56246   0.28235   0.98192   0.01267  Uiso   1.00
O6760  O     0.56050   0.15012   0.98290   0.01267  Uiso   1.00
O6761  O     0.40072   0.33011   0.93871   0.01267  Uiso   1.00
O6762  O     0.40159   0.14229   0.94054   0.01267  Uiso   1.00
O6763  O     0.57397   0.22459   0.84934   0.01267  Uiso   1.00
O6764  O     0.56100   0.21841   0.81589   0.01267  Uiso   1.00
O6765  O     0.54013   0.22621   0.99221   0.01267  Uiso   1.00
O6766  O     0.51935   0.21892   0.81576   0.01267  Uiso   1.00
O6767  O     0.52256   0.22717   0.85440   0.01267  Uiso   1.00
O6768  O     0.54811   0.24252   0.84887   0.01267  Uiso   1.00
O6769  O     0.57359   0.45009   0.84532   0.01267  Uiso   1.00
O6770  O     0.56144   0.44091   0.81136   0.01267  Uiso   1.00
O6771  O     0.53846   0.43394   0.99315   0.01267  Uiso   1.00
O6772  O     0.51704   0.45039   0.81474   0.01267  Uiso   1.00
O6773  O     0.52247   0.44599   0.85302   0.01267  Uiso   1.00
O6774  O     0.54767   0.43158   0.84433   0.01267  Uiso   1.00
O6775  O     0.56385   0.33442   0.83412   0.01267  Uiso   1.00
O6776  O     0.51702   0.33506   0.83340   0.01267  Uiso   1.00
O6777  O     0.58481   0.15787   0.87889   0.01267  Uiso   1.00
O6778  O     0.58252   0.28864   0.88144   0.01267  Uiso   1.00
O6779  O     0.57949   0.41968   0.88260   0.01267  Uiso   1.00
O6780  O     0.53886   0.15540   0.87517   0.01267  Uiso   1.00
O6781  O     0.53683   0.28555   0.88179   0.01267  Uiso   1.00
O6782  O     0.53944   0.41786   0.88163   0.01267  Uiso   1.00
O6783  O     0.49902   0.24052   0.83968   0.01267  Uiso   1.00
O6784  O     0.49827   0.42423   0.84071   0.01267  Uiso   1.00
O6785  O     0.52502   0.72359   0.94934   0.01267  Uiso   1.00
O6786  O     0.53663   0.71987   0.91497   0.01267  Uiso   1.00
O6787  O     0.55978   0.72517   0.89735   0.01267  Uiso   1.00
O6788  O     0.58380   0.72323   0.91220   0.01267  Uiso   1.00
O6789  O     0.57680   0.72140   0.95008   0.01267  Uiso   1.00
O6790  O     0.55099   0.73498   0.94709   0.01267  Uiso   1.00
O6791  O     0.52551   0.94999   0.94416   0.01267  Uiso   1.00
O6792  O     0.53766   0.93537   0.91022   0.01267  Uiso   1.00
O6793  O     0.56150   0.93559   0.89460   0.01267  Uiso   1.00
O6794  O     0.58421   0.94762   0.91316   0.01267  Uiso   1.00
O6795  O     0.57691   0.94675   0.95094   0.01267  Uiso   1.00
O6796  O     0.55159   0.93487   0.94291   0.01267  Uiso   1.00
O6797  O     0.53574   0.83363   0.93513   0.01267  Uiso   1.00
O6798  O     0.58304   0.83463   0.93288   0.01267  Uiso   1.00
O6799  O     0.51433   0.65600   0.97878   0.01267  Uiso   1.00
O6800  O     0.51637   0.78737   0.98167   0.01267  Uiso   1.00
O6801  O     0.52092   0.91748   0.98172   0.01267  Uiso   1.00
O6802  O     0.56173   0.65241   0.97315   0.01267  Uiso   1.00
O6803  O     0.56354   0.78351   0.97833   0.01267  Uiso   1.00
O6804  O     0.56005   0.91483   0.97956   0.01267  Uiso   1.00
O6805  O     0.40138   0.74324   0.94019   0.01267  Uiso   1.00
O6806  O     0.40158   0.92438   0.94110   0.01267  Uiso   1.00
O6807  O     0.57457   0.84670   0.84457   0.01267  Uiso   1.00
O6808  O     0.56045   0.84616   0.81239   0.01267  Uiso   1.00
O6809  O     0.54032   0.83186   0.98769   0.01267  Uiso   1.00
O6810  O     0.52170   0.85033   0.81500   0.01267  Uiso   1.00
O6811  O     0.52374   0.83465   0.85374   0.01267  Uiso   1.00
O6812  O     0.54900   0.82034   0.84663   0.01267  Uiso   1.00
O6813  O     0.57406   0.61622   0.84383   0.01267  Uiso   1.00
O6814  O     0.56059   0.62156   0.81120   0.01267  Uiso   1.00
O6815  O     0.53875   0.63267   0.98997   0.01267  Uiso   1.00
O6816  O     0.51943   0.61365   0.81549   0.01267  Uiso   1.00
O6817  O     0.52328   0.63111   0.85378   0.01267  Uiso   1.00
O6818  O     0.54848   0.64207   0.84507   0.01267  Uiso   1.00
O6819  O     0.56507   0.73232   0.83113   0.01267  Uiso   1.00
O6820  O     0.51686   0.73334   0.83064   0.01267  Uiso   1.00
O6821  O     0.58393   0.91087   0.87559   0.01267  Uiso   1.00
O6822  O     0.57925   0.78135   0.87774   0.01267  Uiso   1.00
O6823  O     0.57822   0.64987   0.88123   0.01267  Uiso   1.00
O6824  O     0.54070   0.91203   0.87203   0.01267  Uiso   1.00
O6825  O     0.53910   0.78430   0.88128   0.01267  Uiso   1.00
O6826  O     0.54037   0.65177   0.88244   0.01267  Uiso   1.00
O6827  O     0.50054   0.83442   0.83818   0.01267  Uiso   1.00
O6828  O     0.49951   0.63868   0.83983   0.01267  Uiso   1.00
O6829  O     0.47376   0.23337   0.84700   0.01267  Uiso   1.00
O6830  O     0.46080   0.21641   0.88015   0.01267  Uiso   1.00
O6831  O     0.44049   0.22745   0.90473   0.01267  Uiso   1.00
O6832  O     0.42045   0.21506   0.87961   0.01267  Uiso   1.00
O6833  O     0.42267   0.23339   0.84098   0.01267  Uiso   1.00
O6834  O     0.44792   0.24988   0.84759   0.01267  Uiso   1.00
O6835  O     0.47360   0.44695   0.84951   0.01267  Uiso   1.00
O6836  O     0.46043   0.45456   0.88244   0.01267  Uiso   1.00
O6837  O     0.43824   0.43554   0.90246   0.01267  Uiso   1.00
O6838  O     0.41766   0.45520   0.87919   0.01267  Uiso   1.00
O6839  O     0.42228   0.43391   0.84107   0.01267  Uiso   1.00
O6840  O     0.44758   0.42840   0.84920   0.01267  Uiso   1.00
O6841  O     0.46321   0.33781   0.86505   0.01267  Uiso   1.00
O6842  O     0.41595   0.33371   0.86482   0.01267  Uiso   1.00
O6843  O     0.48434   0.15683   0.81931   0.01267  Uiso   1.00
O6844  O     0.48236   0.28576   0.81299   0.01267  Uiso   1.00
O6845  O     0.47996   0.41708   0.81246   0.01267  Uiso   1.00
O6846  O     0.43963   0.15614   0.82266   0.01267  Uiso   1.00
O6847  O     0.43772   0.28201   0.81263   0.01267  Uiso   1.00
O6848  O     0.43938   0.41390   0.81219   0.01267  Uiso   1.00
O6849  O     0.59939   0.23485   0.85660   0.01267  Uiso   1.00
O6850  O     0.59816   0.42453   0.85491   0.01267  Uiso   1.00
O6851  O     0.42617   0.34559   0.94509   0.01267  Uiso   1.00
O6852  O     0.43875   0.34782   0.97900   0.01267  Uiso   1.00
O6853  O     0.45987   0.33971   0.80217   0.01267  Uiso   1.00
O6854  O     0.48092   0.35101   0.97927   0.01267  Uiso   1.00
O6855  O     0.47750   0.34243   0.94069   0.01267  Uiso   1.00
O6856  O     0.45199   0.32609   0.94634   0.01267  Uiso   1.00
O6857  O     0.42616   0.11649   0.95024   0.01267  Uiso   1.00
O6858  O     0.43828   0.13126   0.98410   0.01267  Uiso   1.00
O6859  O     0.46137   0.13647   0.80178   0.01267  Uiso   1.00
O6860  O     0.48329   0.12100   0.98152   0.01267  Uiso   1.00
O6861  O     0.47729   0.12219   0.94317   0.01267  Uiso   1.00
O6862  O     0.45208   0.13608   0.95095   0.01267  Uiso   1.00
O6863  O     0.43569   0.23376   0.95968   0.01267  Uiso   1.00
O6864  O     0.48322   0.23424   0.96163   0.01267  Uiso   1.00
O6865  O     0.41439   0.41036   0.91590   0.01267  Uiso   1.00
O6866  O     0.41754   0.28017   0.91320   0.01267  Uiso   1.00
O6867  O     0.42031   0.14893   0.91301   0.01267  Uiso   1.00
O6868  O     0.46113   0.41167   0.91950   0.01267  Uiso   1.00
O6869  O     0.46335   0.28126   0.91366   0.01267  Uiso   1.00
O6870  O     0.46068   0.14952   0.91386   0.01267  Uiso   1.00
O6871  O     0.50106   0.32947   0.95516   0.01267  Uiso   1.00
O6872  O     0.50166   0.14318   0.95489   0.01267  Uiso   1.00
O6873  O     0.48671   0.53297   0.82673   0.01267  Uiso   1.00
O6874  O     0.43802   0.53056   0.82803   0.01267  Uiso   1.00
O6875  O     0.45457   0.53483   0.91211   0.01267  Uiso   1.00
O6876  O     0.42141   0.53464   0.90960   0.01267  Uiso   1.00
O6877  O     0.41327   0.03307   0.92711   0.01267  Uiso   1.00
O6878  O     0.46031   0.03147   0.93052   0.01267  Uiso   1.00
O6879  O     0.44491   0.03735   0.81008   0.01267  Uiso   1.00
O6880  O     0.47765   0.03542   0.80994   0.01267  Uiso   1.00
O6881  O     0.51330   0.03329   0.96819   0.01267  Uiso   1.00
O6882  O     0.56012   0.03549   0.96473   0.01267  Uiso   1.00
O6883  O     0.54459   0.03235   0.88530   0.01267  Uiso   1.00
O6884  O     0.57807   0.03363   0.88531   0.01267  Uiso   1.00
O6885  O     0.58653   0.53477   0.86797   0.01267  Uiso   1.00
O6886  O     0.53963   0.53603   0.86527   0.01267  Uiso   1.00
O6887  O     0.55523   0.53143   0.98424   0.01267  Uiso   1.00
O6888  O     0.52171   0.53284   0.98512   0.01267  Uiso   1.00
H6889  H     0.47836   0.61034   0.89640   0.01267  Uiso   1.00
H6890  H     0.51803   0.56025   0.88748   0.01267  Uiso   1.00
H6891  H     0.49611   0.60087   0.87473   0.01267  Uiso   1.00
H6892  H     0.47928   0.58796   0.93030   0.01267  Uiso   1.00
H6893  H     0.50054   0.54786   0.94554   0.01267  Uiso   1.00
H6894  H     0.52017   0.53368   0.92346   0.01267  Uiso   1.00
C6895  C     0.51084   0.55093   0.91750   0.01267  Uiso   1.00
C6896  C     0.50975   0.56565   0.89745   0.01267  Uiso   1.00
C6897  C     0.49783   0.58779   0.89009   0.01267  Uiso   1.00
C6898  C     0.48823   0.58054   0.92178   0.01267  Uiso   1.00
C6899  C     0.49996   0.55859   0.92983   0.01267  Uiso   1.00
N6900  N     0.48749   0.59435   0.90234   0.01267  Uiso   1.00
Si6901 Si    0.68561   0.84225   0.83009   0.01267  Uiso   1.00
Si6902 Si    0.66278   0.81360   0.86027   0.01267  Uiso   1.00
Si6903 Si    0.65583   0.84479   0.90339   0.01267  Uiso   1.00
Si6904 Si    0.62475   0.84618   0.90399   0.01267  Uiso   1.00
Si6905 Si    0.61407   0.81247   0.86182   0.01267  Uiso   1.00
Si6906 Si    0.63775   0.85034   0.83538   0.01267  Uiso   1.00
Si6907 Si    0.65332   0.61381   0.90670   0.01267  Uiso   1.00
Si6908 Si    0.62279   0.61254   0.90363   0.01267  Uiso   1.00
Si6909 Si    0.61342   0.65538   0.86086   0.01267  Uiso   1.00
Si6910 Si    0.63728   0.60581   0.83693   0.01267  Uiso   1.00
Si6911 Si    0.61616   0.72596   0.93282   0.01267  Uiso   1.00
Si6912 Si    0.63725   0.75636   0.96392   0.01267  Uiso   1.00
Si6913 Si    0.64379   0.72491   0.80809   0.01267  Uiso   1.00
Si6914 Si    0.67525   0.72020   0.80453   0.01267  Uiso   1.00
Si6915 Si    0.68454   0.75344   0.96158   0.01267  Uiso   1.00
Si6916 Si    0.66086   0.72720   0.93492   0.01267  Uiso   1.00
Si6917 Si    0.61539   0.95611   0.93338   0.01267  Uiso   1.00
Si6918 Si    0.63782   0.91458   0.96251   0.01267  Uiso   1.00
Si6919 Si    0.64574   0.95877   0.80524   0.01267  Uiso   1.00
Si6920 Si    0.67637   0.95824   0.80332   0.01267  Uiso   1.00
Si6921 Si    0.68589   0.91164   0.96112   0.01267  Uiso   1.00
Si6922 Si    0.66224   0.95289   0.93494   0.01267  Uiso   1.00
Si6923 Si    0.71519   0.33982   0.96571   0.01267  Uiso   1.00
Si6924 Si    0.73830   0.31154   0.93588   0.01267  Uiso   1.00
Si6925 Si    0.74378   0.34875   0.89231   0.01267  Uiso   1.00
Si6926 Si    0.77535   0.34962   0.89268   0.01267  Uiso   1.00
Si6927 Si    0.78542   0.31200   0.93485   0.01267  Uiso   1.00
Si6928 Si    0.76293   0.33679   0.96427   0.01267  Uiso   1.00
Si6929 Si    0.71525   0.11132   0.96325   0.01267  Uiso   1.00
Si6930 Si    0.73833   0.15455   0.93438   0.01267  Uiso   1.00
Si6931 Si    0.74591   0.10962   0.89171   0.01267  Uiso   1.00
Si6932 Si    0.77663   0.10913   0.89336   0.01267  Uiso   1.00
Si6933 Si    0.78622   0.15438   0.93533   0.01267  Uiso   1.00
Si6934 Si    0.76257   0.11429   0.96166   0.01267  Uiso   1.00
Si6935 Si    0.78502   0.22684   0.86654   0.01267  Uiso   1.00
Si6936 Si    0.76174   0.25522   0.83712   0.01267  Uiso   1.00
Si6937 Si    0.75600   0.21915   0.99322   0.01267  Uiso   1.00
Si6938 Si    0.72432   0.21829   0.99315   0.01267  Uiso   1.00
Si6939 Si    0.71441   0.25572   0.83571   0.01267  Uiso   1.00
Si6940 Si    0.73677   0.22759   0.86509   0.01267  Uiso   1.00
Si6941 Si    0.78450   0.45707   0.86266   0.01267  Uiso   1.00
Si6942 Si    0.76165   0.41398   0.83388   0.01267  Uiso   1.00
Si6943 Si    0.75388   0.45421   0.99068   0.01267  Uiso   1.00
Si6944 Si    0.72311   0.45652   0.99276   0.01267  Uiso   1.00
Si6945 Si    0.71366   0.41346   0.83542   0.01267  Uiso   1.00
Si6946 Si    0.73740   0.45749   0.86093   0.01267  Uiso   1.00
Si6947 Si    0.71403   0.72581   0.96664   0.01267  Uiso   1.00
Si6948 Si    0.73718   0.75373   0.93673   0.01267  Uiso   1.00
Si6949 Si    0.74407   0.72051   0.89376   0.01267  Uiso   1.00
Si6950 Si    0.77531   0.72011   0.89205   0.01267  Uiso   1.00
Si6951 Si    0.78627   0.75573   0.93380   0.01267  Uiso   1.00
Si6952 Si    0.76312   0.72372   0.96221   0.01267  Uiso   1.00
Si6953 Si    0.71522   0.95587   0.96240   0.01267  Uiso   1.00
Si6954 Si    0.73766   0.91329   0.93321   0.01267  Uiso   1.00
Si6955 Si    0.74614   0.95420   0.89068   0.01267  Uiso   1.00
Si6956 Si    0.77689   0.95655   0.89215   0.01267  Uiso   1.00
Si6957 Si    0.78641   0.91313   0.93451   0.01267  Uiso   1.00
Si6958 Si    0.76218   0.95772   0.95950   0.01267  Uiso   1.00
Si6959 Si    0.78425   0.84128   0.86354   0.01267  Uiso   1.00
Si6960 Si    0.76226   0.81123   0.83372   0.01267  Uiso   1.00
Si6961 Si    0.75608   0.84424   0.98947   0.01267  Uiso   1.00
Si6962 Si    0.72487   0.84689   0.99162   0.01267  Uiso   1.00
Si6963 Si    0.73824   0.83795   0.86343   0.01267  Uiso   1.00
Si6964 Si    0.78433   0.61201   0.86209   0.01267  Uiso   1.00
Si6965 Si    0.76208   0.65359   0.83289   0.01267  Uiso   1.00
Si6966 Si    0.75410   0.60952   0.98974   0.01267  Uiso   1.00
Si6967 Si    0.72355   0.60919   0.99246   0.01267  Uiso   1.00
Si6968 Si    0.73812   0.61528   0.86135   0.01267  Uiso   1.00
Si6969 Si    0.68470   0.22929   0.82975   0.01267  Uiso   1.00
Si6970 Si    0.66142   0.25959   0.85988   0.01267  Uiso   1.00
Si6971 Si    0.65630   0.21824   0.90313   0.01267  Uiso   1.00
Si6972 Si    0.62475   0.21795   0.90261   0.01267  Uiso   1.00
Si6973 Si    0.61461   0.25459   0.86060   0.01267  Uiso   1.00
Si6974 Si    0.63712   0.23048   0.83100   0.01267  Uiso   1.00
Si6975 Si    0.68454   0.45578   0.83236   0.01267  Uiso   1.00
Si6976 Si    0.65350   0.45921   0.90399   0.01267  Uiso   1.00
Si6977 Si    0.62292   0.45901   0.90175   0.01267  Uiso   1.00
Si6978 Si    0.61358   0.41176   0.85996   0.01267  Uiso   1.00
Si6979 Si    0.63687   0.45258   0.83284   0.01267  Uiso   1.00
Si6980 Si    0.61489   0.34132   0.92827   0.01267  Uiso   1.00
Si6981 Si    0.63816   0.31292   0.95752   0.01267  Uiso   1.00
Si6982 Si    0.64397   0.34608   0.80155   0.01267  Uiso   1.00
Si6983 Si    0.67565   0.34841   0.80181   0.01267  Uiso   1.00
Si6984 Si    0.68566   0.31349   0.95932   0.01267  Uiso   1.00
Si6985 Si    0.66326   0.34015   0.92998   0.01267  Uiso   1.00
Si6986 Si    0.61536   0.11047   0.93276   0.01267  Uiso   1.00
Si6987 Si    0.63812   0.15440   0.96122   0.01267  Uiso   1.00
Si6988 Si    0.64602   0.11509   0.80448   0.01267  Uiso   1.00
Si6989 Si    0.67662   0.11234   0.80309   0.01267  Uiso   1.00
Si6990 Si    0.68628   0.15524   0.96035   0.01267  Uiso   1.00
Si6991 Si    0.66256   0.10986   0.93460   0.01267  Uiso   1.00
Si6992 Si    0.71557   0.81298   0.83426   0.01267  Uiso   1.00
Si6993 Si    0.71464   0.65490   0.83477   0.01267  Uiso   1.00
Si6994 Si    0.68492   0.60995   0.83394   0.01267  Uiso   1.00
Si6995 Si    0.66110   0.41691   0.86129   0.01267  Uiso   1.00
Al6996 Al    0.66188   0.65046   0.86330   0.01267  Uiso   1.00
O6997  O     0.67568   0.84207   0.84861   0.01267  Uiso   1.00
O6998  O     0.66408   0.83937   0.88312   0.01267  Uiso   1.00
O6999  O     0.64020   0.84616   0.89845   0.01267  Uiso   1.00
O7000  O     0.61593   0.83841   0.88432   0.01267  Uiso   1.00
O7001  O     0.62378   0.85166   0.84697   0.01267  Uiso   1.00
O7002  O     0.64980   0.84927   0.85087   0.01267  Uiso   1.00
O7003  O     0.67596   0.61481   0.85315   0.01267  Uiso   1.00
O7004  O     0.66328   0.63255   0.88899   0.01267  Uiso   1.00
O7005  O     0.63821   0.63325   0.90155   0.01267  Uiso   1.00
O7006  O     0.61542   0.62562   0.88292   0.01267  Uiso   1.00
O7007  O     0.62216   0.61659   0.84471   0.01267  Uiso   1.00
O7008  O     0.64751   0.61507   0.85451   0.01267  Uiso   1.00
O7009  O     0.66188   0.73502   0.85882   0.01267  Uiso   1.00
O7010  O     0.61719   0.73364   0.86075   0.01267  Uiso   1.00
O7011  O     0.68473   0.91280   0.81843   0.01267  Uiso   1.00
O7012  O     0.68288   0.78221   0.81461   0.01267  Uiso   1.00
O7013  O     0.67939   0.65082   0.81488   0.01267  Uiso   1.00
O7014  O     0.63838   0.91857   0.82261   0.01267  Uiso   1.00
O7015  O     0.63810   0.78664   0.82078   0.01267  Uiso   1.00
O7016  O     0.63988   0.65518   0.81820   0.01267  Uiso   1.00
O7017  O     0.79895   0.82722   0.85552   0.01267  Uiso   1.00
O7018  O     0.79797   0.64633   0.85521   0.01267  Uiso   1.00
O7019  O     0.62556   0.71887   0.95202   0.01267  Uiso   1.00
O7020  O     0.63734   0.72780   0.98616   0.01267  Uiso   1.00
O7021  O     0.65961   0.73234   0.80610   0.01267  Uiso   1.00
O7022  O     0.67963   0.71593   0.98143   0.01267  Uiso   1.00
O7023  O     0.67601   0.72869   0.94268   0.01267  Uiso   1.00
O7024  O     0.65139   0.74236   0.95356   0.01267  Uiso   1.00
O7025  O     0.62602   0.95211   0.95107   0.01267  Uiso   1.00
O7026  O     0.63842   0.94513   0.98447   0.01267  Uiso   1.00
O7027  O     0.66103   0.93507   0.80364   0.01267  Uiso   1.00
O7028  O     0.68220   0.95145   0.98112   0.01267  Uiso   1.00
O7029  O     0.67706   0.93936   0.94299   0.01267  Uiso   1.00
O7030  O     0.65179   0.92743   0.95147   0.01267  Uiso   1.00
O7031  O     0.63463   0.83589   0.96351   0.01267  Uiso   1.00
O7032  O     0.68314   0.83306   0.96445   0.01267  Uiso   1.00
O7033  O     0.61592   0.65609   0.92092   0.01267  Uiso   1.00
O7034  O     0.62177   0.78484   0.91883   0.01267  Uiso   1.00
O7035  O     0.62075   0.91604   0.91426   0.01267  Uiso   1.00
O7036  O     0.65801   0.65269   0.92668   0.01267  Uiso   1.00
O7037  O     0.65889   0.78135   0.91755   0.01267  Uiso   1.00
O7038  O     0.66003   0.91306   0.91450   0.01267  Uiso   1.00
O7039  O     0.69966   0.73304   0.95658   0.01267  Uiso   1.00
O7040  O     0.70128   0.92362   0.95570   0.01267  Uiso   1.00
O7041  O     0.72644   0.34312   0.94879   0.01267  Uiso   1.00
O7042  O     0.73903   0.35220   0.91517   0.01267  Uiso   1.00
O7043  O     0.75958   0.33962   0.89095   0.01267  Uiso   1.00
O7044  O     0.77982   0.35087   0.91557   0.01267  Uiso   1.00
O7045  O     0.77737   0.33585   0.95425   0.01267  Uiso   1.00
O7046  O     0.75209   0.31933   0.94752   0.01267  Uiso   1.00
O7047  O     0.72649   0.12021   0.94655   0.01267  Uiso   1.00
O7048  O     0.73883   0.11954   0.91294   0.01267  Uiso   1.00
O7049  O     0.76126   0.13171   0.89339   0.01267  Uiso   1.00
O7050  O     0.78232   0.11284   0.91566   0.01267  Uiso   1.00
O7051  O     0.77740   0.12841   0.95378   0.01267  Uiso   1.00
O7052  O     0.75225   0.14438   0.94566   0.01267  Uiso   1.00
O7053  O     0.73551   0.23348   0.93177   0.01267  Uiso   1.00
O7054  O     0.78352   0.23273   0.93135   0.01267  Uiso   1.00
O7055  O     0.71502   0.41015   0.97746   0.01267  Uiso   1.00
O7056  O     0.71776   0.27968   0.98114   0.01267  Uiso   1.00
O7057  O     0.71978   0.14838   0.98345   0.01267  Uiso   1.00
O7058  O     0.76032   0.41021   0.97321   0.01267  Uiso   1.00
O7059  O     0.76246   0.28235   0.98192   0.01267  Uiso   1.00
O7060  O     0.76050   0.15012   0.98290   0.01267  Uiso   1.00
O7061  O     0.60072   0.33011   0.93871   0.01267  Uiso   1.00
O7062  O     0.60159   0.14229   0.94054   0.01267  Uiso   1.00
O7063  O     0.77397   0.22459   0.84934   0.01267  Uiso   1.00
O7064  O     0.76100   0.21841   0.81589   0.01267  Uiso   1.00
O7065  O     0.74013   0.22621   0.99221   0.01267  Uiso   1.00
O7066  O     0.71935   0.21892   0.81576   0.01267  Uiso   1.00
O7067  O     0.72256   0.22717   0.85440   0.01267  Uiso   1.00
O7068  O     0.74811   0.24252   0.84887   0.01267  Uiso   1.00
O7069  O     0.77359   0.45009   0.84532   0.01267  Uiso   1.00
O7070  O     0.76144   0.44091   0.81136   0.01267  Uiso   1.00
O7071  O     0.73846   0.43394   0.99315   0.01267  Uiso   1.00
O7072  O     0.71704   0.45039   0.81474   0.01267  Uiso   1.00
O7073  O     0.72247   0.44599   0.85302   0.01267  Uiso   1.00
O7074  O     0.74767   0.43158   0.84433   0.01267  Uiso   1.00
O7075  O     0.76385   0.33442   0.83412   0.01267  Uiso   1.00
O7076  O     0.71702   0.33506   0.83340   0.01267  Uiso   1.00
O7077  O     0.78481   0.15787   0.87889   0.01267  Uiso   1.00
O7078  O     0.78252   0.28864   0.88144   0.01267  Uiso   1.00
O7079  O     0.77949   0.41968   0.88260   0.01267  Uiso   1.00
O7080  O     0.73886   0.15540   0.87517   0.01267  Uiso   1.00
O7081  O     0.73683   0.28555   0.88179   0.01267  Uiso   1.00
O7082  O     0.73944   0.41786   0.88163   0.01267  Uiso   1.00
O7083  O     0.69902   0.24052   0.83968   0.01267  Uiso   1.00
O7084  O     0.69827   0.42423   0.84071   0.01267  Uiso   1.00
O7085  O     0.72502   0.72359   0.94934   0.01267  Uiso   1.00
O7086  O     0.73663   0.71987   0.91497   0.01267  Uiso   1.00
O7087  O     0.75978   0.72517   0.89735   0.01267  Uiso   1.00
O7088  O     0.78380   0.72323   0.91220   0.01267  Uiso   1.00
O7089  O     0.77680   0.72140   0.95008   0.01267  Uiso   1.00
O7090  O     0.75099   0.73498   0.94709   0.01267  Uiso   1.00
O7091  O     0.72551   0.94999   0.94416   0.01267  Uiso   1.00
O7092  O     0.73766   0.93537   0.91022   0.01267  Uiso   1.00
O7093  O     0.76150   0.93559   0.89460   0.01267  Uiso   1.00
O7094  O     0.78421   0.94762   0.91316   0.01267  Uiso   1.00
O7095  O     0.77691   0.94675   0.95094   0.01267  Uiso   1.00
O7096  O     0.75159   0.93487   0.94291   0.01267  Uiso   1.00
O7097  O     0.73574   0.83363   0.93513   0.01267  Uiso   1.00
O7098  O     0.78304   0.83463   0.93288   0.01267  Uiso   1.00
O7099  O     0.71433   0.65600   0.97878   0.01267  Uiso   1.00
O7100  O     0.71637   0.78737   0.98167   0.01267  Uiso   1.00
O7101  O     0.72092   0.91748   0.98172   0.01267  Uiso   1.00
O7102  O     0.76173   0.65241   0.97315   0.01267  Uiso   1.00
O7103  O     0.76354   0.78351   0.97833   0.01267  Uiso   1.00
O7104  O     0.76005   0.91483   0.97956   0.01267  Uiso   1.00
O7105  O     0.60138   0.74324   0.94019   0.01267  Uiso   1.00
O7106  O     0.60158   0.92438   0.94110   0.01267  Uiso   1.00
O7107  O     0.77457   0.84670   0.84457   0.01267  Uiso   1.00
O7108  O     0.76045   0.84616   0.81239   0.01267  Uiso   1.00
O7109  O     0.74032   0.83186   0.98769   0.01267  Uiso   1.00
O7110  O     0.72170   0.85033   0.81500   0.01267  Uiso   1.00
O7111  O     0.72374   0.83465   0.85374   0.01267  Uiso   1.00
O7112  O     0.74900   0.82034   0.84663   0.01267  Uiso   1.00
O7113  O     0.77406   0.61622   0.84383   0.01267  Uiso   1.00
O7114  O     0.76059   0.62156   0.81120   0.01267  Uiso   1.00
O7115  O     0.73875   0.63267   0.98997   0.01267  Uiso   1.00
O7116  O     0.71943   0.61365   0.81549   0.01267  Uiso   1.00
O7117  O     0.72328   0.63111   0.85378   0.01267  Uiso   1.00
O7118  O     0.74848   0.64207   0.84507   0.01267  Uiso   1.00
O7119  O     0.76507   0.73232   0.83113   0.01267  Uiso   1.00
O7120  O     0.71686   0.73334   0.83064   0.01267  Uiso   1.00
O7121  O     0.78393   0.91087   0.87559   0.01267  Uiso   1.00
O7122  O     0.77925   0.78135   0.87774   0.01267  Uiso   1.00
O7123  O     0.77822   0.64987   0.88123   0.01267  Uiso   1.00
O7124  O     0.74070   0.91203   0.87203   0.01267  Uiso   1.00
O7125  O     0.73910   0.78430   0.88128   0.01267  Uiso   1.00
O7126  O     0.74037   0.65177   0.88244   0.01267  Uiso   1.00
O7127  O     0.70054   0.83442   0.83818   0.01267  Uiso   1.00
O7128  O     0.69951   0.63868   0.83983   0.01267  Uiso   1.00
O7129  O     0.67376   0.23337   0.84700   0.01267  Uiso   1.00
O7130  O     0.66080   0.21641   0.88015   0.01267  Uiso   1.00
O7131  O     0.64049   0.22745   0.90473   0.01267  Uiso   1.00
O7132  O     0.62045   0.21506   0.87961   0.01267  Uiso   1.00
O7133  O     0.62267   0.23339   0.84098   0.01267  Uiso   1.00
O7134  O     0.64792   0.24988   0.84759   0.01267  Uiso   1.00
O7135  O     0.67360   0.44695   0.84951   0.01267  Uiso   1.00
O7136  O     0.66043   0.45456   0.88244   0.01267  Uiso   1.00
O7137  O     0.63824   0.43554   0.90246   0.01267  Uiso   1.00
O7138  O     0.61766   0.45520   0.87919   0.01267  Uiso   1.00
O7139  O     0.62228   0.43391   0.84107   0.01267  Uiso   1.00
O7140  O     0.64758   0.42840   0.84920   0.01267  Uiso   1.00
O7141  O     0.66321   0.33781   0.86505   0.01267  Uiso   1.00
O7142  O     0.61595   0.33371   0.86482   0.01267  Uiso   1.00
O7143  O     0.68434   0.15683   0.81931   0.01267  Uiso   1.00
O7144  O     0.68236   0.28576   0.81299   0.01267  Uiso   1.00
O7145  O     0.67996   0.41708   0.81246   0.01267  Uiso   1.00
O7146  O     0.63963   0.15614   0.82266   0.01267  Uiso   1.00
O7147  O     0.63772   0.28201   0.81263   0.01267  Uiso   1.00
O7148  O     0.63938   0.41390   0.81219   0.01267  Uiso   1.00
O7149  O     0.79939   0.23485   0.85660   0.01267  Uiso   1.00
O7150  O     0.79816   0.42453   0.85491   0.01267  Uiso   1.00
O7151  O     0.62617   0.34559   0.94509   0.01267  Uiso   1.00
O7152  O     0.63875   0.34782   0.97900   0.01267  Uiso   1.00
O7153  O     0.65987   0.33971   0.80217   0.01267  Uiso   1.00
O7154  O     0.68092   0.35101   0.97927   0.01267  Uiso   1.00
O7155  O     0.67750   0.34243   0.94069   0.01267  Uiso   1.00
O7156  O     0.65199   0.32609   0.94634   0.01267  Uiso   1.00
O7157  O     0.62616   0.11649   0.95024   0.01267  Uiso   1.00
O7158  O     0.63828   0.13126   0.98410   0.01267  Uiso   1.00
O7159  O     0.66137   0.13647   0.80178   0.01267  Uiso   1.00
O7160  O     0.68329   0.12100   0.98152   0.01267  Uiso   1.00
O7161  O     0.67729   0.12219   0.94317   0.01267  Uiso   1.00
O7162  O     0.65208   0.13608   0.95095   0.01267  Uiso   1.00
O7163  O     0.63569   0.23376   0.95968   0.01267  Uiso   1.00
O7164  O     0.68322   0.23424   0.96163   0.01267  Uiso   1.00
O7165  O     0.61439   0.41036   0.91590   0.01267  Uiso   1.00
O7166  O     0.61754   0.28017   0.91320   0.01267  Uiso   1.00
O7167  O     0.62031   0.14893   0.91301   0.01267  Uiso   1.00
O7168  O     0.66113   0.41167   0.91950   0.01267  Uiso   1.00
O7169  O     0.66335   0.28126   0.91366   0.01267  Uiso   1.00
O7170  O     0.66068   0.14952   0.91386   0.01267  Uiso   1.00
O7171  O     0.70106   0.32947   0.95516   0.01267  Uiso   1.00
O7172  O     0.70166   0.14318   0.95489   0.01267  Uiso   1.00
O7173  O     0.68671   0.53297   0.82673   0.01267  Uiso   1.00
O7174  O     0.63802   0.53056   0.82803   0.01267  Uiso   1.00
O7175  O     0.65457   0.53483   0.91211   0.01267  Uiso   1.00
O7176  O     0.62141   0.53464   0.90960   0.01267  Uiso   1.00
O7177  O     0.61327   0.03307   0.92711   0.01267  Uiso   1.00
O7178  O     0.66031   0.03147   0.93052   0.01267  Uiso   1.00
O7179  O     0.64491   0.03735   0.81008   0.01267  Uiso   1.00
O7180  O     0.67765   0.03542   0.80994   0.01267  Uiso   1.00
O7181  O     0.71330   0.03329   0.96819   0.01267  Uiso   1.00
O7182  O     0.76012   0.03549   0.96473   0.01267  Uiso   1.00
O7183  O     0.74459   0.03235   0.88530   0.01267  Uiso   1.00
O7184  O     0.77807   0.03363   0.88531   0.01267  Uiso   1.00
O7185  O     0.78653   0.53477   0.86797   0.01267  Uiso   1.00
O7186  O     0.73963   0.53603   0.86527   0.01267  Uiso   1.00
O7187  O     0.75523   0.53143   0.98424   0.01267  Uiso   1.00
O7188  O     0.72171   0.53284   0.98512   0.01267  Uiso   1.00
H7189  H     0.67836   0.61034   0.89640   0.01267  Uiso   1.00
H7190  H     0.71803   0.56025   0.88748   0.01267  Uiso   1.00
H7191  H     0.69611   0.60087   0.87473   0.01267  Uiso   1.00
H7192  H     0.67928   0.58796   0.93030   0.01267  Uiso   1.00
H7193  H     0.70054   0.54786   0.94554   0.01267  Uiso   1.00
H7194  H     0.72017   0.53368   0.92346   0.01267  Uiso   1.00
C7195  C     0.71084   0.55093   0.91750   0.01267  Uiso   1.00
C7196  C     0.70975   0.56565   0.89745   0.01267  Uiso   1.00
C7197  C     0.69783   0.58779   0.89009   0.01267  Uiso   1.00
C7198  C     0.68823   0.58054   0.92178   0.01267  Uiso   1.00
C7199  C     0.69996   0.55859   0.92983   0.01267  Uiso   1.00
N7200  N     0.68749   0.59435   0.90234   0.01267  Uiso   1.00
Si7201 Si    0.88561   0.84225   0.83009   0.01267  Uiso   1.00
Si7202 Si    0.86278   0.81360   0.86027   0.01267  Uiso   1.00
Si7203 Si    0.85583   0.84479   0.90339   0.01267  Uiso   1.00
Si7204 Si    0.82475   0.84618   0.90399   0.01267  Uiso   1.00
Si7205 Si    0.81407   0.81247   0.86182   0.01267  Uiso   1.00
Si7206 Si    0.83775   0.85034   0.83538   0.01267  Uiso   1.00
Si7207 Si    0.85332   0.61381   0.90670   0.01267  Uiso   1.00
Si7208 Si    0.82279   0.61254   0.90363   0.01267  Uiso   1.00
Si7209 Si    0.81342   0.65538   0.86086   0.01267  Uiso   1.00
Si7210 Si    0.83728   0.60581   0.83693   0.01267  Uiso   1.00
Si7211 Si    0.81616   0.72596   0.93282   0.01267  Uiso   1.00
Si7212 Si    0.83725   0.75636   0.96392   0.01267  Uiso   1.00
Si7213 Si    0.84379   0.72491   0.80809   0.01267  Uiso   1.00
Si7214 Si    0.87525   0.72020   0.80453   0.01267  Uiso   1.00
Si7215 Si    0.88454   0.75344   0.96158   0.01267  Uiso   1.00
Si7216 Si    0.86086   0.72720   0.93492   0.01267  Uiso   1.00
Si7217 Si    0.81539   0.95611   0.93338   0.01267  Uiso   1.00
Si7218 Si    0.83782   0.91458   0.96251   0.01267  Uiso   1.00
Si7219 Si    0.84574   0.95877   0.80524   0.01267  Uiso   1.00
Si7220 Si    0.87637   0.95824   0.80332   0.01267  Uiso   1.00
Si7221 Si    0.88589   0.91164   0.96112   0.01267  Uiso   1.00
Si7222 Si    0.86224   0.95289   0.93494   0.01267  Uiso   1.00
Si7223 Si    0.91519   0.33982   0.96571   0.01267  Uiso   1.00
Si7224 Si    0.93830   0.31154   0.93588   0.01267  Uiso   1.00
Si7225 Si    0.94378   0.34875   0.89231   0.01267  Uiso   1.00
Si7226 Si    0.97535   0.34962   0.89268   0.01267  Uiso   1.00
Si7227 Si    0.98542   0.31200   0.93485   0.01267  Uiso   1.00
Si7228 Si    0.96293   0.33679   0.96427   0.01267  Uiso   1.00
Si7229 Si    0.91525   0.11132   0.96325   0.01267  Uiso   1.00
Si7230 Si    0.93833   0.15455   0.93438   0.01267  Uiso   1.00
Si7231 Si    0.94591   0.10962   0.89171   0.01267  Uiso   1.00
Si7232 Si    0.97663   0.10913   0.89336   0.01267  Uiso   1.00
Si7233 Si    0.98622   0.15438   0.93533   0.01267  Uiso   1.00
Si7234 Si    0.96257   0.11429   0.96166   0.01267  Uiso   1.00
Si7235 Si    0.98502   0.22684   0.86654   0.01267  Uiso   1.00
Si7236 Si    0.96174   0.25522   0.83712   0.01267  Uiso   1.00
Si7237 Si    0.95600   0.21915   0.99322   0.01267  Uiso   1.00
Si7238 Si    0.92432   0.21829   0.99315   0.01267  Uiso   1.00
Si7239 Si    0.91441   0.25572   0.83571   0.01267  Uiso   1.00
Si7240 Si    0.93677   0.22759   0.86509   0.01267  Uiso   1.00
Si7241 Si    0.98450   0.45707   0.86266   0.01267  Uiso   1.00
Si7242 Si    0.96165   0.41398   0.83388   0.01267  Uiso   1.00
Si7243 Si    0.95388   0.45421   0.99068   0.01267  Uiso   1.00
Si7244 Si    0.92311   0.45652   0.99276   0.01267  Uiso   1.00
Si7245 Si    0.91366   0.41346   0.83542   0.01267  Uiso   1.00
Si7246 Si    0.93740   0.45749   0.86093   0.01267  Uiso   1.00
Si7247 Si    0.91403   0.72581   0.96664   0.01267  Uiso   1.00
Si7248 Si    0.93718   0.75373   0.93673   0.01267  Uiso   1.00
Si7249 Si    0.94407   0.72051   0.89376   0.01267  Uiso   1.00
Si7250 Si    0.97531   0.72011   0.89205   0.01267  Uiso   1.00
Si7251 Si    0.98627   0.75573   0.93380   0.01267  Uiso   1.00
Si7252 Si    0.96312   0.72372   0.96221   0.01267  Uiso   1.00
Si7253 Si    0.91522   0.95587   0.96240   0.01267  Uiso   1.00
Si7254 Si    0.93766   0.91329   0.93321   0.01267  Uiso   1.00
Si7255 Si    0.94614   0.95420   0.89068   0.01267  Uiso   1.00
Si7256 Si    0.97689   0.95655   0.89215   0.01267  Uiso   1.00
Si7257 Si    0.98641   0.91313   0.93451   0.01267  Uiso   1.00
Si7258 Si    0.96218   0.95772   0.95950   0.01267  Uiso   1.00
Si7259 Si    0.98425   0.84128   0.86354   0.01267  Uiso   1.00
Si7260 Si    0.96226   0.81123   0.83372   0.01267  Uiso   1.00
Si7261 Si    0.95608   0.84424   0.98947   0.01267  Uiso   1.00
Si7262 Si    0.92487   0.84689   0.99162   0.01267  Uiso   1.00
Si7263 Si    0.93824   0.83795   0.86343   0.01267  Uiso   1.00
Si7264 Si    0.98433   0.61201   0.86209   0.01267  Uiso   1.00
Si7265 Si    0.96208   0.65359   0.83289   0.01267  Uiso   1.00
Si7266 Si    0.95410   0.60952   0.98974   0.01267  Uiso   1.00
Si7267 Si    0.92355   0.60919   0.99246   0.01267  Uiso   1.00
Si7268 Si    0.93812   0.61528   0.86135   0.01267  Uiso   1.00
Si7269 Si    0.88470   0.22929   0.82975   0.01267  Uiso   1.00
Si7270 Si    0.86142   0.25959   0.85988   0.01267  Uiso   1.00
Si7271 Si    0.85630   0.21824   0.90313   0.01267  Uiso   1.00
Si7272 Si    0.82475   0.21795   0.90261   0.01267  Uiso   1.00
Si7273 Si    0.81461   0.25459   0.86060   0.01267  Uiso   1.00
Si7274 Si    0.83712   0.23048   0.83100   0.01267  Uiso   1.00
Si7275 Si    0.88454   0.45578   0.83236   0.01267  Uiso   1.00
Si7276 Si    0.85350   0.45921   0.90399   0.01267  Uiso   1.00
Si7277 Si    0.82292   0.45901   0.90175   0.01267  Uiso   1.00
Si7278 Si    0.81358   0.41176   0.85996   0.01267  Uiso   1.00
Si7279 Si    0.83687   0.45258   0.83284   0.01267  Uiso   1.00
Si7280 Si    0.81489   0.34132   0.92827   0.01267  Uiso   1.00
Si7281 Si    0.83816   0.31292   0.95752   0.01267  Uiso   1.00
Si7282 Si    0.84397   0.34608   0.80155   0.01267  Uiso   1.00
Si7283 Si    0.87565   0.34841   0.80181   0.01267  Uiso   1.00
Si7284 Si    0.88566   0.31349   0.95932   0.01267  Uiso   1.00
Si7285 Si    0.86326   0.34015   0.92998   0.01267  Uiso   1.00
Si7286 Si    0.81536   0.11047   0.93276   0.01267  Uiso   1.00
Si7287 Si    0.83812   0.15440   0.96122   0.01267  Uiso   1.00
Si7288 Si    0.84602   0.11509   0.80448   0.01267  Uiso   1.00
Si7289 Si    0.87662   0.11234   0.80309   0.01267  Uiso   1.00
Si7290 Si    0.88628   0.15524   0.96035   0.01267  Uiso   1.00
Si7291 Si    0.86256   0.10986   0.93460   0.01267  Uiso   1.00
Si7292 Si    0.91557   0.81298   0.83426   0.01267  Uiso   1.00
Si7293 Si    0.91464   0.65490   0.83477   0.01267  Uiso   1.00
Si7294 Si    0.88492   0.60995   0.83394   0.01267  Uiso   1.00
Si7295 Si    0.86110   0.41691   0.86129   0.01267  Uiso   1.00
Al7296 Al    0.86188   0.65046   0.86330   0.01267  Uiso   1.00
O7297  O     0.87568   0.84207   0.84861   0.01267  Uiso   1.00
O7298  O     0.86408   0.83937   0.88312   0.01267  Uiso   1.00
O7299  O     0.84020   0.84616   0.89845   0.01267  Uiso   1.00
O7300  O     0.81593   0.83841   0.88432   0.01267  Uiso   1.00
O7301  O     0.82378   0.85166   0.84697   0.01267  Uiso   1.00
O7302  O     0.84980   0.84927   0.85087   0.01267  Uiso   1.00
O7303  O     0.87596   0.61481   0.85315   0.01267  Uiso   1.00
O7304  O     0.86328   0.63255   0.88899   0.01267  Uiso   1.00
O7305  O     0.83821   0.63325   0.90155   0.01267  Uiso   1.00
O7306  O     0.81542   0.62562   0.88292   0.01267  Uiso   1.00
O7307  O     0.82216   0.61659   0.84471   0.01267  Uiso   1.00
O7308  O     0.84751   0.61507   0.85451   0.01267  Uiso   1.00
O7309  O     0.86188   0.73502   0.85882   0.01267  Uiso   1.00
O7310  O     0.81719   0.73364   0.86075   0.01267  Uiso   1.00
O7311  O     0.88473   0.91280   0.81843   0.01267  Uiso   1.00
O7312  O     0.88288   0.78221   0.81461   0.01267  Uiso   1.00
O7313  O     0.87939   0.65082   0.81488   0.01267  Uiso   1.00
O7314  O     0.83838   0.91857   0.82261   0.01267  Uiso   1.00
O7315  O     0.83810   0.78664   0.82078   0.01267  Uiso   1.00
O7316  O     0.83988   0.65518   0.81820   0.01267  Uiso   1.00
O7317  O     0.99895   0.82722   0.85552   0.01267  Uiso   1.00
O7318  O     0.99797   0.64633   0.85521   0.01267  Uiso   1.00
O7319  O     0.82556   0.71887   0.95202   0.01267  Uiso   1.00
O7320  O     0.83734   0.72780   0.98616   0.01267  Uiso   1.00
O7321  O     0.85961   0.73234   0.80610   0.01267  Uiso   1.00
O7322  O     0.87963   0.71593   0.98143   0.01267  Uiso   1.00
O7323  O     0.87601   0.72869   0.94268   0.01267  Uiso   1.00
O7324  O     0.85139   0.74236   0.95356   0.01267  Uiso   1.00
O7325  O     0.82602   0.95211   0.95107   0.01267  Uiso   1.00
O7326  O     0.83842   0.94513   0.98447   0.01267  Uiso   1.00
O7327  O     0.86103   0.93507   0.80364   0.01267  Uiso   1.00
O7328  O     0.88220   0.95145   0.98112   0.01267  Uiso   1.00
O7329  O     0.87706   0.93936   0.94299   0.01267  Uiso   1.00
O7330  O     0.85179   0.92743   0.95147   0.01267  Uiso   1.00
O7331  O     0.83463   0.83589   0.96351   0.01267  Uiso   1.00
O7332  O     0.88314   0.83306   0.96445   0.01267  Uiso   1.00
O7333  O     0.81592   0.65609   0.92092   0.01267  Uiso   1.00
O7334  O     0.82177   0.78484   0.91883   0.01267  Uiso   1.00
O7335  O     0.82075   0.91604   0.91426   0.01267  Uiso   1.00
O7336  O     0.85801   0.65269   0.92668   0.01267  Uiso   1.00
O7337  O     0.85889   0.78135   0.91755   0.01267  Uiso   1.00
O7338  O     0.86003   0.91306   0.91450   0.01267  Uiso   1.00
O7339  O     0.89966   0.73304   0.95658   0.01267  Uiso   1.00
O7340  O     0.90128   0.92362   0.95570   0.01267  Uiso   1.00
O7341  O     0.92644   0.34312   0.94879   0.01267  Uiso   1.00
O7342  O     0.93903   0.35220   0.91517   0.01267  Uiso   1.00
O7343  O     0.95958   0.33962   0.89095   0.01267  Uiso   1.00
O7344  O     0.97982   0.35087   0.91557   0.01267  Uiso   1.00
O7345  O     0.97737   0.33585   0.95425   0.01267  Uiso   1.00
O7346  O     0.95209   0.31933   0.94752   0.01267  Uiso   1.00
O7347  O     0.92649   0.12021   0.94655   0.01267  Uiso   1.00
O7348  O     0.93883   0.11954   0.91294   0.01267  Uiso   1.00
O7349  O     0.96126   0.13171   0.89339   0.01267  Uiso   1.00
O7350  O     0.98232   0.11284   0.91566   0.01267  Uiso   1.00
O7351  O     0.97740   0.12841   0.95378   0.01267  Uiso   1.00
O7352  O     0.95225   0.14438   0.94566   0.01267  Uiso   1.00
O7353  O     0.93551   0.23348   0.93177   0.01267  Uiso   1.00
O7354  O     0.98352   0.23273   0.93135   0.01267  Uiso   1.00
O7355  O     0.91502   0.41015   0.97746   0.01267  Uiso   1.00
O7356  O     0.91776   0.27968   0.98114   0.01267  Uiso   1.00
O7357  O     0.91978   0.14838   0.98345   0.01267  Uiso   1.00
O7358  O     0.96032   0.41021   0.97321   0.01267  Uiso   1.00
O7359  O     0.96246   0.28235   0.98192   0.01267  Uiso   1.00
O7360  O     0.96050   0.15012   0.98290   0.01267  Uiso   1.00
O7361  O     0.80072   0.33011   0.93871   0.01267  Uiso   1.00
O7362  O     0.80159   0.14229   0.94054   0.01267  Uiso   1.00
O7363  O     0.97397   0.22459   0.84934   0.01267  Uiso   1.00
O7364  O     0.96100   0.21841   0.81589   0.01267  Uiso   1.00
O7365  O     0.94013   0.22621   0.99221   0.01267  Uiso   1.00
O7366  O     0.91935   0.21892   0.81576   0.01267  Uiso   1.00
O7367  O     0.92256   0.22717   0.85440   0.01267  Uiso   1.00
O7368  O     0.94811   0.24252   0.84887   0.01267  Uiso   1.00
O7369  O     0.97359   0.45009   0.84532   0.01267  Uiso   1.00
O7370  O     0.96144   0.44091   0.81136   0.01267  Uiso   1.00
O7371  O     0.93846   0.43394   0.99315   0.01267  Uiso   1.00
O7372  O     0.91704   0.45039   0.81474   0.01267  Uiso   1.00
O7373  O     0.92247   0.44599   0.85302   0.01267  Uiso   1.00
O7374  O     0.94767   0.43158   0.84433   0.01267  Uiso   1.00
O7375  O     0.96385   0.33442   0.83412   0.01267  Uiso   1.00
O7376  O     0.91702   0.33506   0.83340   0.01267  Uiso   1.00
O7377  O     0.98481   0.15787   0.87889   0.01267  Uiso   1.00
O7378  O     0.98252   0.28864   0.88144   0.01267  Uiso   1.00
O7379  O     0.97949   0.41968   0.88260   0.01267  Uiso   1.00
O7380  O     0.93886   0.15540   0.87517   0.01267  Uiso   1.00
O7381  O     0.93683   0.28555   0.88179   0.01267  Uiso   1.00
O7382  O     0.93944   0.41786   0.88163   0.01267  Uiso   1.00
O7383  O     0.89902   0.24052   0.83968   0.01267  Uiso   1.00
O7384  O     0.89827   0.42423   0.84071   0.01267  Uiso   1.00
O7385  O     0.92502   0.72359   0.94934   0.01267  Uiso   1.00
O7386  O     0.93663   0.71987   0.91497   0.01267  Uiso   1.00
O7387  O     0.95978   0.72517   0.89735   0.01267  Uiso   1.00
O7388  O     0.98380   0.72323   0.91220   0.01267  Uiso   1.00
O7389  O     0.97680   0.72140   0.95008   0.01267  Uiso   1.00
O7390  O     0.95099   0.73498   0.94709   0.01267  Uiso   1.00
O7391  O     0.92551   0.94999   0.94416   0.01267  Uiso   1.00
O7392  O     0.93766   0.93537   0.91022   0.01267  Uiso   1.00
O7393  O     0.96150   0.93559   0.89460   0.01267  Uiso   1.00
O7394  O     0.98421   0.94762   0.91316   0.01267  Uiso   1.00
O7395  O     0.97691   0.94675   0.95094   0.01267  Uiso   1.00
O7396  O     0.95159   0.93487   0.94291   0.01267  Uiso   1.00
O7397  O     0.93574   0.83363   0.93513   0.01267  Uiso   1.00
O7398  O     0.98304   0.83463   0.93288   0.01267  Uiso   1.00
O7399  O     0.91433   0.65600   0.97878   0.01267  Uiso   1.00
O7400  O     0.91637   0.78737   0.98167   0.01267  Uiso   1.00
O7401  O     0.92092   0.91748   0.98172   0.01267  Uiso   1.00
O7402  O     0.96173   0.65241   0.97315   0.01267  Uiso   1.00
O7403  O     0.96354   0.78351   0.97833   0.01267  Uiso   1.00
O7404  O     0.96005   0.91483   0.97956   0.01267  Uiso   1.00
O7405  O     0.80138   0.74324   0.94019   0.01267  Uiso   1.00
O7406  O     0.80158   0.92438   0.94110   0.01267  Uiso   1.00
O7407  O     0.97457   0.84670   0.84457   0.01267  Uiso   1.00
O7408  O     0.96045   0.84616   0.81239   0.01267  Uiso   1.00
O7409  O     0.94032   0.83186   0.98769   0.01267  Uiso   1.00
O7410  O     0.92170   0.85033   0.81500   0.01267  Uiso   1.00
O7411  O     0.92374   0.83465   0.85374   0.01267  Uiso   1.00
O7412  O     0.94900   0.82034   0.84663   0.01267  Uiso   1.00
O7413  O     0.97406   0.61622   0.84383   0.01267  Uiso   1.00
O7414  O     0.96059   0.62156   0.81120   0.01267  Uiso   1.00
O7415  O     0.93875   0.63267   0.98997   0.01267  Uiso   1.00
O7416  O     0.91943   0.61365   0.81549   0.01267  Uiso   1.00
O7417  O     0.92328   0.63111   0.85378   0.01267  Uiso   1.00
O7418  O     0.94848   0.64207   0.84507   0.01267  Uiso   1.00
O7419  O     0.96507   0.73232   0.83113   0.01267  Uiso   1.00
O7420  O     0.91686   0.73334   0.83064   0.01267  Uiso   1.00
O7421  O     0.98393   0.91087   0.87559   0.01267  Uiso   1.00
O7422  O     0.97925   0.78135   0.87774   0.01267  Uiso   1.00
O7423  O     0.97822   0.64987   0.88123   0.01267  Uiso   1.00
O7424  O     0.94070   0.91203   0.87203   0.01267  Uiso   1.00
O7425  O     0.93910   0.78430   0.88128   0.01267  Uiso   1.00
O7426  O     0.94037   0.65177   0.88244   0.01267  Uiso   1.00
O7427  O     0.90054   0.83442   0.83818   0.01267  Uiso   1.00
O7428  O     0.89951   0.63868   0.83983   0.01267  Uiso   1.00
O7429  O     0.87376   0.23337   0.84700   0.01267  Uiso   1.00
O7430  O     0.86080   0.21641   0.88015   0.01267  Uiso   1.00
O7431  O     0.84049   0.22745   0.90473   0.01267  Uiso   1.00
O7432  O     0.82045   0.21506   0.87961   0.01267  Uiso   1.00
O7433  O     0.82267   0.23339   0.84098   0.01267  Uiso   1.00
O7434  O     0.84792   0.24988   0.84759   0.01267  Uiso   1.00
O7435  O     0.87360   0.44695   0.84951   0.01267  Uiso   1.00
O7436  O     0.86043   0.45456   0.88244   0.01267  Uiso   1.00
O7437  O     0.83824   0.43554   0.90246   0.01267  Uiso   1.00
O7438  O     0.81766   0.45520   0.87919   0.01267  Uiso   1.00
O7439  O     0.82228   0.43391   0.84107   0.01267  Uiso   1.00
O7440  O     0.84758   0.42840   0.84920   0.01267  Uiso   1.00
O7441  O     0.86321   0.33781   0.86505   0.01267  Uiso   1.00
O7442  O     0.81595   0.33371   0.86482   0.01267  Uiso   1.00
O7443  O     0.88434   0.15683   0.81931   0.01267  Uiso   1.00
O7444  O     0.88236   0.28576   0.81299   0.01267  Uiso   1.00
O7445  O     0.87996   0.41708   0.81246   0.01267  Uiso   1.00
O7446  O     0.83963   0.15614   0.82266   0.01267  Uiso   1.00
O7447  O     0.83772   0.28201   0.81263   0.01267  Uiso   1.00
O7448  O     0.83938   0.41390   0.81219   0.01267  Uiso   1.00
O7449  O     0.99939   0.23485   0.85660   0.01267  Uiso   1.00
O7450  O     0.99816   0.42453   0.85491   0.01267  Uiso   1.00
O7451  O     0.82617   0.34559   0.94509   0.01267  Uiso   1.00
O7452  O     0.83875   0.34782   0.97900   0.01267  Uiso   1.00
O7453  O     0.85987   0.33971   0.80217   0.01267  Uiso   1.00
O7454  O     0.88092   0.35101   0.97927   0.01267  Uiso   1.00
O7455  O     0.87750   0.34243   0.94069   0.01267  Uiso   1.00
O7456  O     0.85199   0.32609   0.94634   0.01267  Uiso   1.00
O7457  O     0.82616   0.11649   0.95024   0.01267  Uiso   1.00
O7458  O     0.83828   0.13126   0.98410   0.01267  Uiso   1.00
O7459  O     0.86137   0.13647   0.80178   0.01267  Uiso   1.00
O7460  O     0.88329   0.12100   0.98152   0.01267  Uiso   1.00
O7461  O     0.87729   0.12219   0.94317   0.01267  Uiso   1.00
O7462  O     0.85208   0.13608   0.95095   0.01267  Uiso   1.00
O7463  O     0.83569   0.23376   0.95968   0.01267  Uiso   1.00
O7464  O     0.88322   0.23424   0.96163   0.01267  Uiso   1.00
O7465  O     0.81439   0.41036   0.91590   0.01267  Uiso   1.00
O7466  O     0.81754   0.28017   0.91320   0.01267  Uiso   1.00
O7467  O     0.82031   0.14893   0.91301   0.01267  Uiso   1.00
O7468  O     0.86113   0.41167   0.91950   0.01267  Uiso   1.00
O7469  O     0.86335   0.28126   0.91366   0.01267  Uiso   1.00
O7470  O     0.86068   0.14952   0.91386   0.01267  Uiso   1.00
O7471  O     0.90106   0.32947   0.95516   0.01267  Uiso   1.00
O7472  O     0.90166   0.14318   0.95489   0.01267  Uiso   1.00
O7473  O     0.88671   0.53297   0.82673   0.01267  Uiso   1.00
O7474  O     0.83802   0.53056   0.82803   0.01267  Uiso   1.00
O7475  O     0.85457   0.53483   0.91211   0.01267  Uiso   1.00
O7476  O     0.82141   0.53464   0.90960   0.01267  Uiso   1.00
O7477  O     0.81327   0.03307   0.92711   0.01267  Uiso   1.00
O7478  O     0.86031   0.03147   0.93052   0.01267  Uiso   1.00
O7479  O     0.84491   0.03735   0.81008   0.01267  Uiso   1.00
O7480  O     0.87765   0.03542   0.80994   0.01267  Uiso   1.00
O7481  O     0.91330   0.03329   0.96819   0.01267  Uiso   1.00
O7482  O     0.96012   0.03549   0.96473   0.01267  Uiso   1.00
O7483  O     0.94459   0.03235   0.88530   0.01267  Uiso   1.00
O7484  O     0.97807   0.03363   0.88531   0.01267  Uiso   1.00
O7485  O     0.98653   0.53477   0.86797   0.01267  Uiso   1.00
O7486  O     0.93963   0.53603   0.86527   0.01267  Uiso   1.00
O7487  O     0.95523   0.53143   0.98424   0.01267  Uiso   1.00
O7488  O     0.92171   0.53284   0.98512   0.01267  Uiso   1.00
H7489  H     0.87836   0.61034   0.89640   0.01267  Uiso   1.00
H7490  H     0.91803   0.56025   0.88748   0.01267  Uiso   1.00
H7491  H     0.89611   0.60087   0.87473   0.01267  Uiso   1.00
H7492  H     0.87928   0.58796   0.93030   0.01267  Uiso   1.00
H7493  H     0.90054   0.54786   0.94554   0.01267  Uiso   1.00
H7494  H     0.92017   0.53368   0.92346   0.01267  Uiso   1.00
C7495  C     0.91084   0.55093   0.91750   0.01267  Uiso   1.00
C7496  C     0.90975   0.56565   0.89745   0.01267  Uiso   1.00
C7497  C     0.89783   0.58779   0.89009   0.01267  Uiso   1.00
C7498  C     0.88823   0.58054   0.92178   0.01267  Uiso   1.00
C7499  C     0.89996   0.55859   0.92983   0.01267  Uiso   1.00
N7500  N     0.88749   0.59435   0.90234   0.01267  Uiso   1.00
