data_T2-O2
_audit_creation_date              2022-06-16
_audit_creation_method            'Materials Studio'
_symmetry_space_group_name_H-M    'P1'
_symmetry_Int_Tables_number       1
_symmetry_cell_setting            triclinic
loop_
_symmetry_equiv_pos_as_xyz
  x,y,z
_cell_length_a                    20.3820
_cell_length_b                    40.3304
_cell_length_c                    13.5742
_cell_angle_alpha                 90
_cell_angle_beta                  90
_cell_angle_gamma                 90
loop_
_atom_site_label
_atom_site_type_symbol
_atom_site_fract_x
_atom_site_fract_y
_atom_site_fract_z
_atom_site_U_iso_or_equiv
_atom_site_adp_type
_atom_site_occupancy
Si1    Si    0.42194   0.42119   0.14809   0.01267  Uiso   1.00
Si2    Si    0.30504   0.40689   0.29459   0.01267  Uiso   1.00
Si3    Si    0.27966   0.42554   0.51432   0.01267  Uiso   1.00
Si4    Si    0.12174   0.42431   0.51337   0.01267  Uiso   1.00
Si5    Si    0.07294   0.40704   0.29878   0.01267  Uiso   1.00
Si6    Si    0.18295   0.42090   0.14961   0.01267  Uiso   1.00
Si7    Si    0.42345   0.30725   0.16010   0.01267  Uiso   1.00
Si8    Si    0.30523   0.32772   0.30305   0.01267  Uiso   1.00
Si9    Si    0.27036   0.30554   0.51666   0.01267  Uiso   1.00
Si10   Si    0.11688   0.30593   0.51760   0.01267  Uiso   1.00
Si11   Si    0.06480   0.32789   0.30590   0.01267  Uiso   1.00
Si12   Si    0.18113   0.30574   0.17289   0.01267  Uiso   1.00
Si13   Si    0.07530   0.36423   0.65151   0.01267  Uiso   1.00
Si14   Si    0.19242   0.37849   0.79821   0.01267  Uiso   1.00
Si15   Si    0.21558   0.35933   0.01778   0.01267  Uiso   1.00
Si16   Si    0.37233   0.36049   0.01545   0.01267  Uiso   1.00
Si17   Si    0.42020   0.37867   0.80309   0.01267  Uiso   1.00
Si18   Si    0.31303   0.36419   0.64909   0.01267  Uiso   1.00
Si19   Si    0.07523   0.47730   0.66338   0.01267  Uiso   1.00
Si20   Si    0.19551   0.45772   0.80540   0.01267  Uiso   1.00
Si21   Si    0.23042   0.47974   0.01856   0.01267  Uiso   1.00
Si22   Si    0.38351   0.47979   0.01450   0.01267  Uiso   1.00
Si23   Si    0.43373   0.45789   0.80308   0.01267  Uiso   1.00
Si24   Si    0.31746   0.47916   0.66903   0.01267  Uiso   1.00
Si25   Si    0.57556   0.17124   0.83434   0.01267  Uiso   1.00
Si26   Si    0.69247   0.15602   0.68659   0.01267  Uiso   1.00
Si27   Si    0.71820   0.17512   0.46825   0.01267  Uiso   1.00
Si28   Si    0.87631   0.17459   0.46912   0.01267  Uiso   1.00
Si29   Si    0.92639   0.15628   0.68162   0.01267  Uiso   1.00
Si30   Si    0.81502   0.16942   0.83070   0.01267  Uiso   1.00
Si31   Si    0.57508   0.05729   0.82152   0.01267  Uiso   1.00
Si32   Si    0.69261   0.07722   0.67693   0.01267  Uiso   1.00
Si33   Si    0.72877   0.05516   0.46267   0.01267  Uiso   1.00
Si34   Si    0.88192   0.05508   0.46939   0.01267  Uiso   1.00
Si35   Si    0.93187   0.07696   0.68055   0.01267  Uiso   1.00
Si36   Si    0.81417   0.05663   0.81267   0.01267  Uiso   1.00
Si37   Si    0.92279   0.11333   0.33550   0.01267  Uiso   1.00
Si38   Si    0.80581   0.12750   0.18934   0.01267  Uiso   1.00
Si39   Si    0.77947   0.10990   0.96966   0.01267  Uiso   1.00
Si40   Si    0.62141   0.11092   0.97113   0.01267  Uiso   1.00
Si41   Si    0.57165   0.12818   0.18426   0.01267  Uiso   1.00
Si42   Si    0.68263   0.11448   0.33283   0.01267  Uiso   1.00
Si43   Si    0.92203   0.22839   0.31980   0.01267  Uiso   1.00
Si44   Si    0.80591   0.20635   0.17651   0.01267  Uiso   1.00
Si45   Si    0.76926   0.22814   0.96144   0.01267  Uiso   1.00
Si46   Si    0.61600   0.22920   0.96785   0.01267  Uiso   1.00
Si47   Si    0.56558   0.20739   0.17997   0.01267  Uiso   1.00
Si48   Si    0.68397   0.22794   0.30953   0.01267  Uiso   1.00
Si49   Si    0.56941   0.36263   0.83830   0.01267  Uiso   1.00
Si50   Si    0.71857   0.36101   0.46097   0.01267  Uiso   1.00
Si51   Si    0.87496   0.36063   0.46787   0.01267  Uiso   1.00
Si52   Si    0.92412   0.37844   0.67965   0.01267  Uiso   1.00
Si53   Si    0.81580   0.36452   0.83224   0.01267  Uiso   1.00
Si54   Si    0.57894   0.48070   0.81761   0.01267  Uiso   1.00
Si55   Si    0.68781   0.45916   0.67547   0.01267  Uiso   1.00
Si56   Si    0.72886   0.47759   0.45873   0.01267  Uiso   1.00
Si57   Si    0.88207   0.47888   0.47026   0.01267  Uiso   1.00
Si58   Si    0.92985   0.45751   0.68187   0.01267  Uiso   1.00
Si59   Si    0.81068   0.47842   0.80942   0.01267  Uiso   1.00
Si60   Si    0.92541   0.42051   0.33685   0.01267  Uiso   1.00
Si61   Si    0.80972   0.40671   0.18488   0.01267  Uiso   1.00
Si62   Si    0.78227   0.42403   0.97019   0.01267  Uiso   1.00
Si63   Si    0.62497   0.42479   0.96213   0.01267  Uiso   1.00
Si64   Si    0.57017   0.40644   0.17385   0.01267  Uiso   1.00
Si65   Si    0.68328   0.42013   0.31922   0.01267  Uiso   1.00
Si66   Si    0.91958   0.30632   0.32230   0.01267  Uiso   1.00
Si67   Si    0.80616   0.32776   0.17452   0.01267  Uiso   1.00
Si68   Si    0.77153   0.30566   0.96110   0.01267  Uiso   1.00
Si69   Si    0.61859   0.30555   0.97464   0.01267  Uiso   1.00
Si70   Si    0.56909   0.32750   0.18428   0.01267  Uiso   1.00
Si71   Si    0.68664   0.30657   0.30974   0.01267  Uiso   1.00
Si72   Si    0.42472   0.11413   0.14542   0.01267  Uiso   1.00
Si73   Si    0.30770   0.12878   0.29102   0.01267  Uiso   1.00
Si74   Si    0.27968   0.11147   0.51138   0.01267  Uiso   1.00
Si75   Si    0.12185   0.10984   0.51378   0.01267  Uiso   1.00
Si76   Si    0.07050   0.12786   0.30280   0.01267  Uiso   1.00
Si77   Si    0.18247   0.11511   0.15392   0.01267  Uiso   1.00
Si78   Si    0.42040   0.22972   0.16203   0.01267  Uiso   1.00
Si79   Si    0.30685   0.20766   0.30461   0.01267  Uiso   1.00
Si80   Si    0.26975   0.22806   0.52127   0.01267  Uiso   1.00
Si81   Si    0.11672   0.22898   0.51074   0.01267  Uiso   1.00
Si82   Si    0.06756   0.20688   0.30015   0.01267  Uiso   1.00
Si83   Si    0.18512   0.22748   0.16847   0.01267  Uiso   1.00
Si84   Si    0.07399   0.17092   0.64597   0.01267  Uiso   1.00
Si85   Si    0.19103   0.15642   0.79212   0.01267  Uiso   1.00
Si86   Si    0.21902   0.17379   0.01220   0.01267  Uiso   1.00
Si87   Si    0.37666   0.17511   0.01339   0.01267  Uiso   1.00
Si88   Si    0.42732   0.15708   0.80278   0.01267  Uiso   1.00
Si89   Si    0.31602   0.17019   0.65325   0.01267  Uiso   1.00
Si90   Si    0.07811   0.05522   0.66391   0.01267  Uiso   1.00
Si91   Si    0.19236   0.07725   0.80587   0.01267  Uiso   1.00
Si92   Si    0.23045   0.05712   0.02279   0.01267  Uiso   1.00
Si93   Si    0.38307   0.05621   0.01108   0.01267  Uiso   1.00
Si94   Si    0.43045   0.07843   0.80032   0.01267  Uiso   1.00
Si95   Si    0.31394   0.05753   0.66725   0.01267  Uiso   1.00
Al96   Al    0.69089   0.37991   0.68527   0.01267  Uiso   1.00
O97    O     0.36805   0.42143   0.23588   0.01267  Uiso   1.00
O98    O     0.29905   0.42660   0.39846   0.01267  Uiso   1.00
O99    O     0.20063   0.42470   0.52890   0.01267  Uiso   1.00
O100   O     0.10361   0.42384   0.39742   0.01267  Uiso   1.00
O101   O     0.11185   0.42097   0.20301   0.01267  Uiso   1.00
O102   O     0.23906   0.41265   0.23070   0.01267  Uiso   1.00
O103   O     0.36560   0.31232   0.24049   0.01267  Uiso   1.00
O104   O     0.30671   0.31040   0.41105   0.01267  Uiso   1.00
O105   O     0.19385   0.31678   0.50679   0.01267  Uiso   1.00
O106   O     0.08016   0.31212   0.41350   0.01267  Uiso   1.00
O107   O     0.10875   0.30949   0.22202   0.01267  Uiso   1.00
O108   O     0.23561   0.31989   0.24984   0.01267  Uiso   1.00
O109   O     0.31465   0.36745   0.31483   0.01267  Uiso   1.00
O110   O     0.08212   0.36710   0.30657   0.01267  Uiso   1.00
O111   O     0.42303   0.45708   0.09347   0.01267  Uiso   1.00
O112   O     0.40507   0.39291   0.06624   0.01267  Uiso   1.00
O113   O     0.40638   0.32703   0.05854   0.01267  Uiso   1.00
O114   O     0.19429   0.45725   0.10134   0.01267  Uiso   1.00
O115   O     0.18369   0.39288   0.06343   0.01267  Uiso   1.00
O116   O     0.18479   0.32649   0.07009   0.01267  Uiso   1.00
O117   O     0.99655   0.41696   0.28429   0.01267  Uiso   1.00
O118   O     0.98774   0.32216   0.28048   0.01267  Uiso   1.00
O119   O     0.12469   0.36781   0.74467   0.01267  Uiso   1.00
O120   O     0.19977   0.35786   0.90067   0.01267  Uiso   1.00
O121   O     0.29433   0.35982   0.03828   0.01267  Uiso   1.00
O122   O     0.38460   0.36169   0.89753   0.01267  Uiso   1.00
O123   O     0.38386   0.36629   0.70374   0.01267  Uiso   1.00
O124   O     0.25460   0.36995   0.72813   0.01267  Uiso   1.00
O125   O     0.13330   0.47099   0.74290   0.01267  Uiso   1.00
O126   O     0.19469   0.47570   0.91228   0.01267  Uiso   1.00
O127   O     0.30694   0.46804   0.00987   0.01267  Uiso   1.00
O128   O     0.41565   0.47628   0.90576   0.01267  Uiso   1.00
O129   O     0.39085   0.47348   0.71333   0.01267  Uiso   1.00
O130   O     0.26388   0.46659   0.74959   0.01267  Uiso   1.00
O131   O     0.19137   0.41792   0.82142   0.01267  Uiso   1.00
O132   O     0.41704   0.41861   0.81369   0.01267  Uiso   1.00
O133   O     0.08267   0.32739   0.60430   0.01267  Uiso   1.00
O134   O     0.09180   0.39154   0.56666   0.01267  Uiso   1.00
O135   O     0.09076   0.45768   0.56127   0.01267  Uiso   1.00
O136   O     0.30673   0.32757   0.60031   0.01267  Uiso   1.00
O137   O     0.31059   0.39220   0.56321   0.01267  Uiso   1.00
O138   O     0.30934   0.45849   0.56688   0.01267  Uiso   1.00
O139   O     0.49625   0.36661   0.79607   0.01267  Uiso   1.00
O140   O     0.51121   0.46316   0.77982   0.01267  Uiso   1.00
O141   O     0.63079   0.17053   0.74860   0.01267  Uiso   1.00
O142   O     0.69782   0.17668   0.58390   0.01267  Uiso   1.00
O143   O     0.79735   0.17257   0.45596   0.01267  Uiso   1.00
O144   O     0.89607   0.17439   0.58466   0.01267  Uiso   1.00
O145   O     0.88672   0.16848   0.77877   0.01267  Uiso   1.00
O146   O     0.75961   0.16069   0.74895   0.01267  Uiso   1.00
O147   O     0.63294   0.06143   0.74041   0.01267  Uiso   1.00
O148   O     0.69335   0.05981   0.56924   0.01267  Uiso   1.00
O149   O     0.80533   0.06689   0.47080   0.01267  Uiso   1.00
O150   O     0.91191   0.05793   0.57965   0.01267  Uiso   1.00
O151   O     0.88839   0.06251   0.77150   0.01267  Uiso   1.00
O152   O     0.76252   0.07087   0.73141   0.01267  Uiso   1.00
O153   O     0.68124   0.11690   0.66401   0.01267  Uiso   1.00
O154   O     0.91898   0.11645   0.66750   0.01267  Uiso   1.00
O155   O     0.57580   0.20749   0.88736   0.01267  Uiso   1.00
O156   O     0.58854   0.14300   0.91768   0.01267  Uiso   1.00
O157   O     0.59379   0.07705   0.92207   0.01267  Uiso   1.00
O158   O     0.80365   0.20630   0.87556   0.01267  Uiso   1.00
O159   O     0.81296   0.14246   0.91982   0.01267  Uiso   1.00
O160   O     0.80503   0.07627   0.91639   0.01267  Uiso   1.00
O161   O     0.00272   0.16664   0.69769   0.01267  Uiso   1.00
O162   O     0.00903   0.07036   0.70387   0.01267  Uiso   1.00
O163   O     0.86709   0.11223   0.25034   0.01267  Uiso   1.00
O164   O     0.80011   0.10810   0.08492   0.01267  Uiso   1.00
O165   O     0.70032   0.11299   0.95774   0.01267  Uiso   1.00
O166   O     0.60166   0.11042   0.08666   0.01267  Uiso   1.00
O167   O     0.61092   0.11539   0.28090   0.01267  Uiso   1.00
O168   O     0.73821   0.12250   0.25044   0.01267  Uiso   1.00
O169   O     0.86486   0.22361   0.23784   0.01267  Uiso   1.00
O170   O     0.80539   0.22215   0.06656   0.01267  Uiso   1.00
O171   O     0.69224   0.21723   0.97129   0.01267  Uiso   1.00
O172   O     0.58368   0.22536   0.07625   0.01267  Uiso   1.00
O173   O     0.60949   0.22310   0.26841   0.01267  Uiso   1.00
O174   O     0.73532   0.21293   0.22917   0.01267  Uiso   1.00
O175   O     0.81842   0.16672   0.16982   0.01267  Uiso   1.00
O176   O     0.58008   0.16802   0.17125   0.01267  Uiso   1.00
O177   O     0.92357   0.07820   0.39403   0.01267  Uiso   1.00
O178   O     0.90931   0.14304   0.41390   0.01267  Uiso   1.00
O179   O     0.90345   0.20885   0.42102   0.01267  Uiso   1.00
O180   O     0.69278   0.07786   0.37997   0.01267  Uiso   1.00
O181   O     0.68509   0.14239   0.41926   0.01267  Uiso   1.00
O182   O     0.69202   0.20873   0.41440   0.01267  Uiso   1.00
O183   O     0.49496   0.11850   0.20000   0.01267  Uiso   1.00
O184   O     0.48841   0.21387   0.20392   0.01267  Uiso   1.00
O185   O     0.61879   0.35663   0.73941   0.01267  Uiso   1.00
O186   O     0.69512   0.36067   0.57290   0.01267  Uiso   1.00
O187   O     0.79758   0.36732   0.44818   0.01267  Uiso   1.00
O188   O     0.89180   0.36023   0.58438   0.01267  Uiso   1.00
O189   O     0.88729   0.36596   0.77836   0.01267  Uiso   1.00
O190   O     0.75657   0.37173   0.75890   0.01267  Uiso   1.00
O191   O     0.63208   0.48202   0.72905   0.01267  Uiso   1.00
O192   O     0.69023   0.47089   0.56082   0.01267  Uiso   1.00
O193   O     0.80572   0.46688   0.47114   0.01267  Uiso   1.00
O194   O     0.91228   0.47710   0.58062   0.01267  Uiso   1.00
O195   O     0.88532   0.47177   0.77149   0.01267  Uiso   1.00
O196   O     0.75965   0.46707   0.72413   0.01267  Uiso   1.00
O197   O     0.66839   0.42088   0.68670   0.01267  Uiso   1.00
O198   O     0.91622   0.41830   0.66540   0.01267  Uiso   1.00
O199   O     0.57369   0.32962   0.90543   0.01267  Uiso   1.00
O200   O     0.59564   0.39522   0.89237   0.01267  Uiso   1.00
O201   O     0.60803   0.46026   0.91190   0.01267  Uiso   1.00
O202   O     0.80945   0.32731   0.87918   0.01267  Uiso   1.00
O203   O     0.81677   0.39181   0.92137   0.01267  Uiso   1.00
O204   O     0.79866   0.45802   0.91105   0.01267  Uiso   1.00
O205   O     0.00114   0.36897   0.69075   0.01267  Uiso   1.00
O206   O     0.00650   0.46397   0.71012   0.01267  Uiso   1.00
O207   O     0.86893   0.42036   0.25314   0.01267  Uiso   1.00
O208   O     0.81026   0.42736   0.08198   0.01267  Uiso   1.00
O209   O     0.70287   0.41887   0.97322   0.01267  Uiso   1.00
O210   O     0.58972   0.42326   0.06892   0.01267  Uiso   1.00
O211   O     0.61285   0.42216   0.26294   0.01267  Uiso   1.00
O212   O     0.73962   0.41257   0.23798   0.01267  Uiso   1.00
O213   O     0.86359   0.31051   0.23869   0.01267  Uiso   1.00
O214   O     0.80668   0.31028   0.06729   0.01267  Uiso   1.00
O215   O     0.69458   0.31756   0.96858   0.01267  Uiso   1.00
O216   O     0.59130   0.30701   0.08647   0.01267  Uiso   1.00
O217   O     0.61066   0.31355   0.27768   0.01267  Uiso   1.00
O218   O     0.73452   0.32127   0.22435   0.01267  Uiso   1.00
O219   O     0.81944   0.36725   0.16434   0.01267  Uiso   1.00
O220   O     0.58299   0.36664   0.16614   0.01267  Uiso   1.00
O221   O     0.92378   0.45545   0.39619   0.01267  Uiso   1.00
O222   O     0.91675   0.38988   0.41395   0.01267  Uiso   1.00
O223   O     0.89695   0.32484   0.42316   0.01267  Uiso   1.00
O224   O     0.69614   0.45578   0.37120   0.01267  Uiso   1.00
O225   O     0.68095   0.39021   0.39930   0.01267  Uiso   1.00
O226   O     0.70066   0.32472   0.41389   0.01267  Uiso   1.00
O227   O     0.49322   0.41377   0.19622   0.01267  Uiso   1.00
O228   O     0.49167   0.32127   0.20667   0.01267  Uiso   1.00
O229   O     0.36677   0.11226   0.22753   0.01267  Uiso   1.00
O230   O     0.30380   0.11046   0.39745   0.01267  Uiso   1.00
O231   O     0.20055   0.11589   0.51877   0.01267  Uiso   1.00
O232   O     0.09773   0.10870   0.40009   0.01267  Uiso   1.00
O233   O     0.11099   0.11560   0.20648   0.01267  Uiso   1.00
O234   O     0.23812   0.12402   0.23518   0.01267  Uiso   1.00
O235   O     0.36507   0.22726   0.24773   0.01267  Uiso   1.00
O236   O     0.30575   0.22138   0.41661   0.01267  Uiso   1.00
O237   O     0.19312   0.21682   0.51302   0.01267  Uiso   1.00
O238   O     0.08898   0.22703   0.39881   0.01267  Uiso   1.00
O239   O     0.11104   0.21971   0.20696   0.01267  Uiso   1.00
O240   O     0.23645   0.21458   0.25224   0.01267  Uiso   1.00
O241   O     0.32211   0.16816   0.30448   0.01267  Uiso   1.00
O242   O     0.07996   0.16758   0.31881   0.01267  Uiso   1.00
O243   O     0.42648   0.07989   0.08233   0.01267  Uiso   1.00
O244   O     0.41406   0.14523   0.07053   0.01267  Uiso   1.00
O245   O     0.39589   0.21037   0.06358   0.01267  Uiso   1.00
O246   O     0.19446   0.07837   0.10860   0.01267  Uiso   1.00
O247   O     0.18358   0.14248   0.06576   0.01267  Uiso   1.00
O248   O     0.19817   0.20847   0.06468   0.01267  Uiso   1.00
O249   O     0.99386   0.11894   0.28413   0.01267  Uiso   1.00
O250   O     0.99076   0.21399   0.27552   0.01267  Uiso   1.00
O251   O     0.13042   0.17222   0.73040   0.01267  Uiso   1.00
O252   O     0.19557   0.17503   0.89803   0.01267  Uiso   1.00
O253   O     0.29812   0.16889   0.02006   0.01267  Uiso   1.00
O254   O     0.40010   0.17665   0.89930   0.01267  Uiso   1.00
O255   O     0.38738   0.16930   0.70599   0.01267  Uiso   1.00
O256   O     0.25970   0.16195   0.73405   0.01267  Uiso   1.00
O257   O     0.13240   0.05870   0.75064   0.01267  Uiso   1.00
O258   O     0.19468   0.06342   0.91776   0.01267  Uiso   1.00
O259   O     0.30699   0.06871   0.01456   0.01267  Uiso   1.00
O260   O     0.40984   0.05774   0.89844   0.01267  Uiso   1.00
O261   O     0.38749   0.06575   0.70684   0.01267  Uiso   1.00
O262   O     0.26156   0.06938   0.75082   0.01267  Uiso   1.00
O263   O     0.17909   0.11694   0.80680   0.01267  Uiso   1.00
O264   O     0.41684   0.11756   0.82045   0.01267  Uiso   1.00
O265   O     0.07422   0.20544   0.58380   0.01267  Uiso   1.00
O266   O     0.08557   0.14006   0.57096   0.01267  Uiso   1.00
O267   O     0.10264   0.07477   0.56534   0.01267  Uiso   1.00
O268   O     0.30555   0.20711   0.60790   0.01267  Uiso   1.00
O269   O     0.31438   0.14296   0.56507   0.01267  Uiso   1.00
O270   O     0.30113   0.07696   0.56408   0.01267  Uiso   1.00
O271   O     0.50422   0.16553   0.78432   0.01267  Uiso   1.00
O272   O     0.50748   0.07232   0.77521   0.01267  Uiso   1.00
O273   O     0.43112   0.26833   0.13271   0.01267  Uiso   1.00
O274   O     0.19481   0.26690   0.14921   0.01267  Uiso   1.00
O275   O     0.27590   0.26700   0.55022   0.01267  Uiso   1.00
O276   O     0.11123   0.26709   0.54816   0.01267  Uiso   1.00
O277   O     0.06997   0.01637   0.63630   0.01267  Uiso   1.00
O278   O     0.30655   0.01819   0.64538   0.01267  Uiso   1.00
O279   O     0.22594   0.01822   0.05275   0.01267  Uiso   1.00
O280   O     0.38887   0.01819   0.04975   0.01267  Uiso   1.00
O281   O     0.56435   0.01866   0.85145   0.01267  Uiso   1.00
O282   O     0.80128   0.01762   0.83346   0.01267  Uiso   1.00
O283   O     0.72379   0.01665   0.42875   0.01267  Uiso   1.00
O284   O     0.88771   0.01699   0.43191   0.01267  Uiso   1.00
O285   O     0.92972   0.26730   0.34680   0.01267  Uiso   1.00
O286   O     0.69828   0.26711   0.32586   0.01267  Uiso   1.00
O287   O     0.77433   0.26682   0.92975   0.01267  Uiso   1.00
O288   O     0.61062   0.26789   0.93354   0.01267  Uiso   1.00
Si289  Si    0.42194   0.92119   0.14809   0.01267  Uiso   1.00
Si290  Si    0.30504   0.90689   0.29459   0.01267  Uiso   1.00
Si291  Si    0.27966   0.92554   0.51432   0.01267  Uiso   1.00
Si292  Si    0.12174   0.92431   0.51337   0.01267  Uiso   1.00
Si293  Si    0.07294   0.90704   0.29878   0.01267  Uiso   1.00
Si294  Si    0.18295   0.92090   0.14961   0.01267  Uiso   1.00
Si295  Si    0.42345   0.80725   0.16010   0.01267  Uiso   1.00
Si296  Si    0.30523   0.82772   0.30305   0.01267  Uiso   1.00
Si297  Si    0.27036   0.80554   0.51666   0.01267  Uiso   1.00
Si298  Si    0.11688   0.80593   0.51760   0.01267  Uiso   1.00
Si299  Si    0.06480   0.82789   0.30590   0.01267  Uiso   1.00
Si300  Si    0.18113   0.80574   0.17289   0.01267  Uiso   1.00
Si301  Si    0.07530   0.86423   0.65151   0.01267  Uiso   1.00
Si302  Si    0.19242   0.87849   0.79821   0.01267  Uiso   1.00
Si303  Si    0.21558   0.85933   0.01778   0.01267  Uiso   1.00
Si304  Si    0.37233   0.86049   0.01545   0.01267  Uiso   1.00
Si305  Si    0.42020   0.87867   0.80309   0.01267  Uiso   1.00
Si306  Si    0.31303   0.86419   0.64909   0.01267  Uiso   1.00
Si307  Si    0.07523   0.97730   0.66338   0.01267  Uiso   1.00
Si308  Si    0.19551   0.95772   0.80540   0.01267  Uiso   1.00
Si309  Si    0.23042   0.97974   0.01856   0.01267  Uiso   1.00
Si310  Si    0.38351   0.97979   0.01450   0.01267  Uiso   1.00
Si311  Si    0.43373   0.95789   0.80308   0.01267  Uiso   1.00
Si312  Si    0.31746   0.97916   0.66903   0.01267  Uiso   1.00
Si313  Si    0.57556   0.67124   0.83434   0.01267  Uiso   1.00
Si314  Si    0.69247   0.65602   0.68659   0.01267  Uiso   1.00
Si315  Si    0.71820   0.67512   0.46825   0.01267  Uiso   1.00
Si316  Si    0.87631   0.67459   0.46912   0.01267  Uiso   1.00
Si317  Si    0.92639   0.65628   0.68162   0.01267  Uiso   1.00
Si318  Si    0.81502   0.66942   0.83070   0.01267  Uiso   1.00
Si319  Si    0.57508   0.55729   0.82152   0.01267  Uiso   1.00
Si320  Si    0.69261   0.57722   0.67693   0.01267  Uiso   1.00
Si321  Si    0.72877   0.55516   0.46267   0.01267  Uiso   1.00
Si322  Si    0.88192   0.55508   0.46939   0.01267  Uiso   1.00
Si323  Si    0.93187   0.57696   0.68055   0.01267  Uiso   1.00
Si324  Si    0.81417   0.55663   0.81267   0.01267  Uiso   1.00
Si325  Si    0.92279   0.61333   0.33550   0.01267  Uiso   1.00
Si326  Si    0.80581   0.62750   0.18934   0.01267  Uiso   1.00
Si327  Si    0.77947   0.60990   0.96966   0.01267  Uiso   1.00
Si328  Si    0.62141   0.61092   0.97113   0.01267  Uiso   1.00
Si329  Si    0.57165   0.62818   0.18426   0.01267  Uiso   1.00
Si330  Si    0.68263   0.61448   0.33283   0.01267  Uiso   1.00
Si331  Si    0.92203   0.72839   0.31980   0.01267  Uiso   1.00
Si332  Si    0.80591   0.70635   0.17651   0.01267  Uiso   1.00
Si333  Si    0.76926   0.72814   0.96144   0.01267  Uiso   1.00
Si334  Si    0.61600   0.72920   0.96785   0.01267  Uiso   1.00
Si335  Si    0.56558   0.70739   0.17997   0.01267  Uiso   1.00
Si336  Si    0.68397   0.72794   0.30953   0.01267  Uiso   1.00
Si337  Si    0.56941   0.86263   0.83830   0.01267  Uiso   1.00
Si338  Si    0.71857   0.86101   0.46097   0.01267  Uiso   1.00
Si339  Si    0.87496   0.86063   0.46787   0.01267  Uiso   1.00
Si340  Si    0.92412   0.87844   0.67965   0.01267  Uiso   1.00
Si341  Si    0.81580   0.86452   0.83224   0.01267  Uiso   1.00
Si342  Si    0.57894   0.98070   0.81761   0.01267  Uiso   1.00
Si343  Si    0.68781   0.95916   0.67547   0.01267  Uiso   1.00
Si344  Si    0.72886   0.97759   0.45873   0.01267  Uiso   1.00
Si345  Si    0.88207   0.97888   0.47026   0.01267  Uiso   1.00
Si346  Si    0.92985   0.95751   0.68187   0.01267  Uiso   1.00
Si347  Si    0.81068   0.97842   0.80942   0.01267  Uiso   1.00
Si348  Si    0.92541   0.92051   0.33685   0.01267  Uiso   1.00
Si349  Si    0.80972   0.90671   0.18488   0.01267  Uiso   1.00
Si350  Si    0.78227   0.92403   0.97019   0.01267  Uiso   1.00
Si351  Si    0.62497   0.92479   0.96213   0.01267  Uiso   1.00
Si352  Si    0.57017   0.90644   0.17385   0.01267  Uiso   1.00
Si353  Si    0.68328   0.92013   0.31922   0.01267  Uiso   1.00
Si354  Si    0.91958   0.80632   0.32230   0.01267  Uiso   1.00
Si355  Si    0.80616   0.82776   0.17452   0.01267  Uiso   1.00
Si356  Si    0.77153   0.80566   0.96110   0.01267  Uiso   1.00
Si357  Si    0.61859   0.80555   0.97464   0.01267  Uiso   1.00
Si358  Si    0.56909   0.82750   0.18428   0.01267  Uiso   1.00
Si359  Si    0.68664   0.80657   0.30974   0.01267  Uiso   1.00
Si360  Si    0.42472   0.61413   0.14542   0.01267  Uiso   1.00
Si361  Si    0.30770   0.62878   0.29102   0.01267  Uiso   1.00
Si362  Si    0.27968   0.61147   0.51138   0.01267  Uiso   1.00
Si363  Si    0.12185   0.60984   0.51378   0.01267  Uiso   1.00
Si364  Si    0.07050   0.62786   0.30280   0.01267  Uiso   1.00
Si365  Si    0.18247   0.61511   0.15392   0.01267  Uiso   1.00
Si366  Si    0.42040   0.72972   0.16203   0.01267  Uiso   1.00
Si367  Si    0.30685   0.70766   0.30461   0.01267  Uiso   1.00
Si368  Si    0.26975   0.72806   0.52127   0.01267  Uiso   1.00
Si369  Si    0.11672   0.72898   0.51074   0.01267  Uiso   1.00
Si370  Si    0.06756   0.70688   0.30015   0.01267  Uiso   1.00
Si371  Si    0.18512   0.72748   0.16847   0.01267  Uiso   1.00
Si372  Si    0.07399   0.67092   0.64597   0.01267  Uiso   1.00
Si373  Si    0.19103   0.65642   0.79212   0.01267  Uiso   1.00
Si374  Si    0.21902   0.67379   0.01220   0.01267  Uiso   1.00
Si375  Si    0.37666   0.67511   0.01339   0.01267  Uiso   1.00
Si376  Si    0.42732   0.65708   0.80278   0.01267  Uiso   1.00
Si377  Si    0.31602   0.67019   0.65325   0.01267  Uiso   1.00
Si378  Si    0.07811   0.55522   0.66391   0.01267  Uiso   1.00
Si379  Si    0.19236   0.57725   0.80587   0.01267  Uiso   1.00
Si380  Si    0.23045   0.55712   0.02279   0.01267  Uiso   1.00
Si381  Si    0.38307   0.55621   0.01108   0.01267  Uiso   1.00
Si382  Si    0.43045   0.57843   0.80032   0.01267  Uiso   1.00
Si383  Si    0.31394   0.55753   0.66725   0.01267  Uiso   1.00
Al384  Al    0.69089   0.87991   0.68527   0.01267  Uiso   1.00
O385   O     0.36805   0.92143   0.23588   0.01267  Uiso   1.00
O386   O     0.29905   0.92660   0.39846   0.01267  Uiso   1.00
O387   O     0.20063   0.92470   0.52890   0.01267  Uiso   1.00
O388   O     0.10361   0.92384   0.39742   0.01267  Uiso   1.00
O389   O     0.11185   0.92097   0.20301   0.01267  Uiso   1.00
O390   O     0.23906   0.91265   0.23070   0.01267  Uiso   1.00
O391   O     0.36560   0.81232   0.24049   0.01267  Uiso   1.00
O392   O     0.30671   0.81040   0.41105   0.01267  Uiso   1.00
O393   O     0.19385   0.81678   0.50679   0.01267  Uiso   1.00
O394   O     0.08016   0.81212   0.41350   0.01267  Uiso   1.00
O395   O     0.10875   0.80949   0.22202   0.01267  Uiso   1.00
O396   O     0.23561   0.81989   0.24984   0.01267  Uiso   1.00
O397   O     0.31465   0.86745   0.31483   0.01267  Uiso   1.00
O398   O     0.08212   0.86710   0.30657   0.01267  Uiso   1.00
O399   O     0.42303   0.95708   0.09347   0.01267  Uiso   1.00
O400   O     0.40507   0.89291   0.06624   0.01267  Uiso   1.00
O401   O     0.40638   0.82703   0.05854   0.01267  Uiso   1.00
O402   O     0.19429   0.95725   0.10134   0.01267  Uiso   1.00
O403   O     0.18369   0.89288   0.06343   0.01267  Uiso   1.00
O404   O     0.18479   0.82649   0.07009   0.01267  Uiso   1.00
O405   O     0.99655   0.91696   0.28429   0.01267  Uiso   1.00
O406   O     0.98774   0.82216   0.28048   0.01267  Uiso   1.00
O407   O     0.12469   0.86781   0.74467   0.01267  Uiso   1.00
O408   O     0.19977   0.85786   0.90067   0.01267  Uiso   1.00
O409   O     0.29433   0.85982   0.03828   0.01267  Uiso   1.00
O410   O     0.38460   0.86169   0.89753   0.01267  Uiso   1.00
O411   O     0.38386   0.86629   0.70374   0.01267  Uiso   1.00
O412   O     0.25460   0.86995   0.72813   0.01267  Uiso   1.00
O413   O     0.13330   0.97099   0.74290   0.01267  Uiso   1.00
O414   O     0.19469   0.97570   0.91228   0.01267  Uiso   1.00
O415   O     0.30694   0.96804   0.00987   0.01267  Uiso   1.00
O416   O     0.41565   0.97628   0.90576   0.01267  Uiso   1.00
O417   O     0.39085   0.97348   0.71333   0.01267  Uiso   1.00
O418   O     0.26388   0.96659   0.74959   0.01267  Uiso   1.00
O419   O     0.19137   0.91792   0.82142   0.01267  Uiso   1.00
O420   O     0.41704   0.91861   0.81369   0.01267  Uiso   1.00
O421   O     0.08267   0.82739   0.60430   0.01267  Uiso   1.00
O422   O     0.09180   0.89154   0.56666   0.01267  Uiso   1.00
O423   O     0.09076   0.95768   0.56127   0.01267  Uiso   1.00
O424   O     0.30673   0.82757   0.60031   0.01267  Uiso   1.00
O425   O     0.31059   0.89220   0.56321   0.01267  Uiso   1.00
O426   O     0.30934   0.95849   0.56688   0.01267  Uiso   1.00
O427   O     0.49625   0.86661   0.79607   0.01267  Uiso   1.00
O428   O     0.51121   0.96316   0.77982   0.01267  Uiso   1.00
O429   O     0.63079   0.67053   0.74860   0.01267  Uiso   1.00
O430   O     0.69782   0.67668   0.58390   0.01267  Uiso   1.00
O431   O     0.79735   0.67257   0.45596   0.01267  Uiso   1.00
O432   O     0.89607   0.67439   0.58466   0.01267  Uiso   1.00
O433   O     0.88672   0.66848   0.77877   0.01267  Uiso   1.00
O434   O     0.75961   0.66069   0.74895   0.01267  Uiso   1.00
O435   O     0.63294   0.56143   0.74041   0.01267  Uiso   1.00
O436   O     0.69335   0.55981   0.56924   0.01267  Uiso   1.00
O437   O     0.80533   0.56689   0.47080   0.01267  Uiso   1.00
O438   O     0.91191   0.55793   0.57965   0.01267  Uiso   1.00
O439   O     0.88839   0.56251   0.77150   0.01267  Uiso   1.00
O440   O     0.76252   0.57087   0.73141   0.01267  Uiso   1.00
O441   O     0.68124   0.61690   0.66401   0.01267  Uiso   1.00
O442   O     0.91898   0.61645   0.66750   0.01267  Uiso   1.00
O443   O     0.57580   0.70749   0.88736   0.01267  Uiso   1.00
O444   O     0.58854   0.64300   0.91768   0.01267  Uiso   1.00
O445   O     0.59379   0.57705   0.92207   0.01267  Uiso   1.00
O446   O     0.80365   0.70630   0.87556   0.01267  Uiso   1.00
O447   O     0.81296   0.64246   0.91982   0.01267  Uiso   1.00
O448   O     0.80503   0.57627   0.91639   0.01267  Uiso   1.00
O449   O     0.00272   0.66664   0.69769   0.01267  Uiso   1.00
O450   O     0.00903   0.57036   0.70387   0.01267  Uiso   1.00
O451   O     0.86709   0.61223   0.25034   0.01267  Uiso   1.00
O452   O     0.80011   0.60810   0.08492   0.01267  Uiso   1.00
O453   O     0.70032   0.61299   0.95774   0.01267  Uiso   1.00
O454   O     0.60166   0.61042   0.08666   0.01267  Uiso   1.00
O455   O     0.61092   0.61539   0.28090   0.01267  Uiso   1.00
O456   O     0.73821   0.62250   0.25044   0.01267  Uiso   1.00
O457   O     0.86486   0.72361   0.23784   0.01267  Uiso   1.00
O458   O     0.80539   0.72215   0.06656   0.01267  Uiso   1.00
O459   O     0.69224   0.71723   0.97129   0.01267  Uiso   1.00
O460   O     0.58368   0.72536   0.07625   0.01267  Uiso   1.00
O461   O     0.60949   0.72310   0.26841   0.01267  Uiso   1.00
O462   O     0.73532   0.71293   0.22917   0.01267  Uiso   1.00
O463   O     0.81842   0.66672   0.16982   0.01267  Uiso   1.00
O464   O     0.58008   0.66802   0.17125   0.01267  Uiso   1.00
O465   O     0.92357   0.57820   0.39403   0.01267  Uiso   1.00
O466   O     0.90931   0.64304   0.41390   0.01267  Uiso   1.00
O467   O     0.90345   0.70885   0.42102   0.01267  Uiso   1.00
O468   O     0.69278   0.57786   0.37997   0.01267  Uiso   1.00
O469   O     0.68509   0.64239   0.41926   0.01267  Uiso   1.00
O470   O     0.69202   0.70873   0.41440   0.01267  Uiso   1.00
O471   O     0.49496   0.61850   0.20000   0.01267  Uiso   1.00
O472   O     0.48841   0.71387   0.20392   0.01267  Uiso   1.00
O473   O     0.61879   0.85663   0.73941   0.01267  Uiso   1.00
O474   O     0.69512   0.86067   0.57290   0.01267  Uiso   1.00
O475   O     0.79758   0.86732   0.44818   0.01267  Uiso   1.00
O476   O     0.89180   0.86023   0.58438   0.01267  Uiso   1.00
O477   O     0.88729   0.86596   0.77836   0.01267  Uiso   1.00
O478   O     0.75657   0.87173   0.75890   0.01267  Uiso   1.00
O479   O     0.63208   0.98202   0.72905   0.01267  Uiso   1.00
O480   O     0.69023   0.97089   0.56082   0.01267  Uiso   1.00
O481   O     0.80572   0.96688   0.47114   0.01267  Uiso   1.00
O482   O     0.91228   0.97710   0.58062   0.01267  Uiso   1.00
O483   O     0.88532   0.97177   0.77149   0.01267  Uiso   1.00
O484   O     0.75965   0.96707   0.72413   0.01267  Uiso   1.00
O485   O     0.66839   0.92088   0.68670   0.01267  Uiso   1.00
O486   O     0.91622   0.91830   0.66540   0.01267  Uiso   1.00
O487   O     0.57369   0.82962   0.90543   0.01267  Uiso   1.00
O488   O     0.59564   0.89522   0.89237   0.01267  Uiso   1.00
O489   O     0.60803   0.96026   0.91190   0.01267  Uiso   1.00
O490   O     0.80945   0.82731   0.87918   0.01267  Uiso   1.00
O491   O     0.81677   0.89181   0.92137   0.01267  Uiso   1.00
O492   O     0.79866   0.95802   0.91105   0.01267  Uiso   1.00
O493   O     0.00114   0.86897   0.69075   0.01267  Uiso   1.00
O494   O     0.00650   0.96397   0.71012   0.01267  Uiso   1.00
O495   O     0.86893   0.92036   0.25314   0.01267  Uiso   1.00
O496   O     0.81026   0.92736   0.08198   0.01267  Uiso   1.00
O497   O     0.70287   0.91887   0.97322   0.01267  Uiso   1.00
O498   O     0.58972   0.92326   0.06892   0.01267  Uiso   1.00
O499   O     0.61285   0.92216   0.26294   0.01267  Uiso   1.00
O500   O     0.73962   0.91257   0.23798   0.01267  Uiso   1.00
O501   O     0.86359   0.81051   0.23869   0.01267  Uiso   1.00
O502   O     0.80668   0.81028   0.06729   0.01267  Uiso   1.00
O503   O     0.69458   0.81756   0.96858   0.01267  Uiso   1.00
O504   O     0.59130   0.80701   0.08647   0.01267  Uiso   1.00
O505   O     0.61066   0.81355   0.27768   0.01267  Uiso   1.00
O506   O     0.73452   0.82127   0.22435   0.01267  Uiso   1.00
O507   O     0.81944   0.86725   0.16434   0.01267  Uiso   1.00
O508   O     0.58299   0.86664   0.16614   0.01267  Uiso   1.00
O509   O     0.92378   0.95545   0.39619   0.01267  Uiso   1.00
O510   O     0.91675   0.88988   0.41395   0.01267  Uiso   1.00
O511   O     0.89695   0.82484   0.42316   0.01267  Uiso   1.00
O512   O     0.69614   0.95578   0.37120   0.01267  Uiso   1.00
O513   O     0.68095   0.89021   0.39930   0.01267  Uiso   1.00
O514   O     0.70066   0.82472   0.41389   0.01267  Uiso   1.00
O515   O     0.49322   0.91377   0.19622   0.01267  Uiso   1.00
O516   O     0.49167   0.82127   0.20667   0.01267  Uiso   1.00
O517   O     0.36677   0.61226   0.22753   0.01267  Uiso   1.00
O518   O     0.30380   0.61046   0.39745   0.01267  Uiso   1.00
O519   O     0.20055   0.61589   0.51877   0.01267  Uiso   1.00
O520   O     0.09773   0.60870   0.40009   0.01267  Uiso   1.00
O521   O     0.11099   0.61560   0.20648   0.01267  Uiso   1.00
O522   O     0.23812   0.62402   0.23518   0.01267  Uiso   1.00
O523   O     0.36507   0.72726   0.24773   0.01267  Uiso   1.00
O524   O     0.30575   0.72138   0.41661   0.01267  Uiso   1.00
O525   O     0.19312   0.71682   0.51302   0.01267  Uiso   1.00
O526   O     0.08898   0.72703   0.39881   0.01267  Uiso   1.00
O527   O     0.11104   0.71971   0.20696   0.01267  Uiso   1.00
O528   O     0.23645   0.71458   0.25224   0.01267  Uiso   1.00
O529   O     0.32211   0.66816   0.30448   0.01267  Uiso   1.00
O530   O     0.07996   0.66758   0.31881   0.01267  Uiso   1.00
O531   O     0.42648   0.57989   0.08233   0.01267  Uiso   1.00
O532   O     0.41406   0.64523   0.07053   0.01267  Uiso   1.00
O533   O     0.39589   0.71037   0.06358   0.01267  Uiso   1.00
O534   O     0.19446   0.57837   0.10860   0.01267  Uiso   1.00
O535   O     0.18358   0.64248   0.06576   0.01267  Uiso   1.00
O536   O     0.19817   0.70847   0.06468   0.01267  Uiso   1.00
O537   O     0.99386   0.61894   0.28413   0.01267  Uiso   1.00
O538   O     0.99076   0.71399   0.27552   0.01267  Uiso   1.00
O539   O     0.13042   0.67222   0.73040   0.01267  Uiso   1.00
O540   O     0.19557   0.67503   0.89803   0.01267  Uiso   1.00
O541   O     0.29812   0.66889   0.02006   0.01267  Uiso   1.00
O542   O     0.40010   0.67665   0.89930   0.01267  Uiso   1.00
O543   O     0.38738   0.66930   0.70599   0.01267  Uiso   1.00
O544   O     0.25970   0.66195   0.73405   0.01267  Uiso   1.00
O545   O     0.13240   0.55870   0.75064   0.01267  Uiso   1.00
O546   O     0.19468   0.56342   0.91776   0.01267  Uiso   1.00
O547   O     0.30699   0.56871   0.01456   0.01267  Uiso   1.00
O548   O     0.40984   0.55774   0.89844   0.01267  Uiso   1.00
O549   O     0.38749   0.56575   0.70684   0.01267  Uiso   1.00
O550   O     0.26156   0.56938   0.75082   0.01267  Uiso   1.00
O551   O     0.17909   0.61694   0.80680   0.01267  Uiso   1.00
O552   O     0.41684   0.61756   0.82045   0.01267  Uiso   1.00
O553   O     0.07422   0.70544   0.58380   0.01267  Uiso   1.00
O554   O     0.08557   0.64006   0.57096   0.01267  Uiso   1.00
O555   O     0.10264   0.57477   0.56534   0.01267  Uiso   1.00
O556   O     0.30555   0.70711   0.60790   0.01267  Uiso   1.00
O557   O     0.31438   0.64296   0.56507   0.01267  Uiso   1.00
O558   O     0.30113   0.57696   0.56408   0.01267  Uiso   1.00
O559   O     0.50422   0.66553   0.78432   0.01267  Uiso   1.00
O560   O     0.50748   0.57232   0.77521   0.01267  Uiso   1.00
O561   O     0.43112   0.76833   0.13271   0.01267  Uiso   1.00
O562   O     0.19481   0.76690   0.14921   0.01267  Uiso   1.00
O563   O     0.27590   0.76700   0.55022   0.01267  Uiso   1.00
O564   O     0.11123   0.76709   0.54816   0.01267  Uiso   1.00
O565   O     0.06997   0.51637   0.63630   0.01267  Uiso   1.00
O566   O     0.30655   0.51819   0.64538   0.01267  Uiso   1.00
O567   O     0.22594   0.51822   0.05275   0.01267  Uiso   1.00
O568   O     0.38887   0.51819   0.04975   0.01267  Uiso   1.00
O569   O     0.56435   0.51866   0.85145   0.01267  Uiso   1.00
O570   O     0.80128   0.51762   0.83346   0.01267  Uiso   1.00
O571   O     0.72379   0.51665   0.42875   0.01267  Uiso   1.00
O572   O     0.88771   0.51699   0.43191   0.01267  Uiso   1.00
O573   O     0.92972   0.76730   0.34680   0.01267  Uiso   1.00
O574   O     0.69828   0.76711   0.32586   0.01267  Uiso   1.00
O575   O     0.77433   0.76682   0.92975   0.01267  Uiso   1.00
O576   O     0.61062   0.76789   0.93354   0.01267  Uiso   1.00
H577   H     0.61088   0.83470   0.70598   0.01267  Uiso   1.00
H578   H     0.41802   0.77145   0.64979   0.01267  Uiso   1.00
H579   H     0.51174   0.76659   0.78492   0.01267  Uiso   1.00
H580   H     0.46630   0.79076   0.47782   0.01267  Uiso   1.00
H581   H     0.59511   0.80035   0.48823   0.01267  Uiso   1.00
C582   C     0.49580   0.78716   0.54393   0.01267  Uiso   1.00
C583   C     0.56227   0.79220   0.54642   0.01267  Uiso   1.00
C584   C     0.46974   0.77679   0.63683   0.01267  Uiso   1.00
C585   C     0.51681   0.77421   0.70849   0.01267  Uiso   1.00
S586   S     0.59350   0.78357   0.66177   0.01267  Uiso   1.00
loop_
_geom_bond_atom_site_label_1
_geom_bond_atom_site_label_2
_geom_bond_distance
_geom_bond_site_symmetry_2
_ccdc_geom_bond_type
Si1    O97     1.620   .     S
Si1    O111    1.626   .     S
Si1    O112    1.630   .     S
Si1    O227    1.621   .     S
Si2    O97     1.620   .     S
Si2    O98     1.624   .     S
Si2    O102    1.618   .     S
Si2    O109    1.626   .     S
Si3    O98     1.622   .     S
Si3    O99     1.623   .     S
Si3    O137    1.627   .     S
Si3    O138    1.626   .     S
Si4    O99     1.622   .     S
Si4    O100    1.617   .     S
Si4    O134    1.625   .     S
Si4    O135    1.623   .     S
Si5    O100    1.627   .     S
Si5    O101    1.622   .     S
Si5    O110    1.625   .     S
Si5    O117    1.620   1_455 S
Si6    O101    1.620   .     S
Si6    O102    1.622   .     S
Si6    O114    1.622   .     S
Si6    O115    1.627   .     S
Si7    O103    1.619   .     S
Si7    O113    1.630   .     S
Si7    O228    1.629   .     S
Si7    O273    1.621   .     S
Si8    O103    1.619   .     S
Si8    O104    1.624   .     S
Si8    O108    1.624   .     S
Si8    O109    1.622   .     S
Si9    O104    1.625   .     S
Si9    O105    1.630   .     S
Si9    O136    1.622   .     S
Si9    O275    1.623   .     S
Si10   O105    1.635   .     S
Si10   O106    1.619   .     S
Si10   O133    1.619   .     S
Si10   O276    1.624   .     S
Si11   O106    1.623   .     S
Si11   O107    1.628   .     S
Si11   O110    1.620   .     S
Si11   O118    1.625   1_455 S
Si12   O107    1.626   .     S
Si12   O108    1.629   .     S
Si12   O116    1.628   .     S
Si12   O274    1.623   .     S
Si13   O119    1.624   .     S
Si13   O133    1.626   .     S
Si13   O134    1.628   .     S
Si13   O205    1.614   .     S
Si14   O119    1.619   .     S
Si14   O120    1.627   .     S
Si14   O124    1.621   .     S
Si14   O131    1.622   .     S
Si15   O115    1.624   .     S
Si15   O116    1.627   .     S
Si15   O120    1.623   1_554 S
Si15   O121    1.629   .     S
Si16   O112    1.623   .     S
Si16   O113    1.626   .     S
Si16   O121    1.620   .     S
Si16   O122    1.620   1_554 S
Si17   O122    1.623   .     S
Si17   O123    1.619   .     S
Si17   O132    1.619   .     S
Si17   O139    1.628   .     S
Si18   O123    1.626   .     S
Si18   O124    1.619   .     S
Si18   O136    1.624   .     S
Si18   O137    1.623   .     S
Si19   O125    1.623   .     S
Si19   O135    1.627   .     S
Si19   O206    1.628   .     S
Si19   O565    1.622   .     S
Si20   O125    1.617   .     S
Si20   O126    1.623   .     S
Si20   O130    1.625   .     S
Si20   O131    1.622   .     S
Si21   O114    1.620   .     S
Si21   O126    1.625   1_554 S
Si21   O127    1.634   .     S
Si21   O567    1.623   .     S
Si22   O111    1.624   .     S
Si22   O127    1.632   .     S
Si22   O128    1.621   1_554 S
Si22   O568    1.625   .     S
Si23   O128    1.622   .     S
Si23   O129    1.626   .     S
Si23   O132    1.626   .     S
Si23   O140    1.624   .     S
Si24   O129    1.629   .     S
Si24   O130    1.625   .     S
Si24   O138    1.627   .     S
Si24   O566    1.622   .     S
Si25   O141    1.619   .     S
Si25   O155    1.630   .     S
Si25   O156    1.627   .     S
Si25   O271    1.622   .     S
Si26   O141    1.622   .     S
Si26   O142    1.627   .     S
Si26   O146    1.621   .     S
Si26   O153    1.624   .     S
Si27   O142    1.625   .     S
Si27   O143    1.625   .     S
Si27   O181    1.626   .     S
Si27   O182    1.630   .     S
Si28   O143    1.621   .     S
Si28   O144    1.620   .     S
Si28   O178    1.623   .     S
Si28   O179    1.624   .     S
Si29   O144    1.627   .     S
Si29   O145    1.623   .     S
Si29   O154    1.625   .     S
Si29   O161    1.626   1_655 S
Si30   O145    1.622   .     S
Si30   O146    1.623   .     S
Si30   O158    1.624   .     S
Si30   O159    1.626   .     S
Si31   O147    1.621   .     S
Si31   O157    1.627   .     S
Si31   O272    1.632   .     S
Si31   O281    1.624   .     S
Si32   O147    1.620   .     S
Si32   O148    1.622   .     S
Si32   O152    1.626   .     S
Si32   O153    1.626   .     S
Si33   O148    1.627   .     S
Si33   O149    1.635   .     S
Si33   O180    1.624   .     S
Si33   O283    1.624   .     S
Si34   O149    1.632   .     S
Si34   O150    1.622   .     S
Si34   O177    1.623   .     S
Si34   O284    1.623   .     S
Si35   O150    1.623   .     S
Si35   O151    1.626   .     S
Si35   O154    1.624   .     S
Si35   O162    1.626   1_655 S
Si36   O151    1.630   .     S
Si36   O152    1.630   .     S
Si36   O160    1.627   .     S
Si36   O282    1.619   .     S
Si37   O163    1.622   .     S
Si37   O177    1.624   .     S
Si37   O178    1.626   .     S
Si37   O249    1.623   .     S
Si38   O163    1.621   .     S
Si38   O164    1.624   .     S
Si38   O168    1.620   .     S
Si38   O175    1.624   .     S
Si39   O159    1.627   .     S
Si39   O160    1.623   .     S
Si39   O164    1.622   1_556 S
Si39   O165    1.626   .     S
Si40   O156    1.627   .     S
Si40   O157    1.621   .     S
Si40   O165    1.620   .     S
Si40   O166    1.619   1_556 S
Si41   O166    1.626   .     S
Si41   O167    1.621   .     S
Si41   O176    1.625   .     S
Si41   O183    1.625   .     S
Si42   O167    1.624   .     S
Si42   O168    1.623   .     S
Si42   O180    1.623   .     S
Si42   O181    1.627   .     S
Si43   O169    1.623   .     S
Si43   O179    1.628   .     S
Si43   O250    1.631   .     S
Si43   O285    1.620   .     S
Si44   O169    1.620   .     S
Si44   O170    1.622   .     S
Si44   O174    1.628   .     S
Si44   O175    1.621   .     S
Si45   O158    1.621   .     S
Si45   O170    1.624   1_556 S
Si45   O171    1.636   .     S
Si45   O287    1.621   .     S
Si46   O155    1.623   .     S
Si46   O171    1.628   .     S
Si46   O172    1.619   1_556 S
Si46   O288    1.632   .     S
Si47   O172    1.625   .     S
Si47   O173    1.627   .     S
Si47   O176    1.620   .     S
Si47   O184    1.627   .     S
Si48   O173    1.630   .     S
Si48   O174    1.628   .     S
Si48   O182    1.628   .     S
Si48   O286    1.622   .     S
Si49   O139    1.606   .     S
Si49   O185    1.694   .     S
Si49   O199    1.615   .     S
Si49   O200    1.598   .     S
Si50   O186    1.592   .     S
Si50   O187    1.639   .     S
Si50   O225    1.636   .     S
Si50   O226    1.639   .     S
Si51   O187    1.623   .     S
Si51   O188    1.619   .     S
Si51   O222    1.628   .     S
Si51   O223    1.629   .     S
Si52   O188    1.628   .     S
Si52   O189    1.615   .     S
Si52   O198    1.627   .     S
Si52   O205    1.623   1_655 S
Si53   O189    1.631   .     S
Si53   O190    1.592   .     S
Si53   O202    1.635   .     S
Si53   O203    1.637   .     S
Si54   O140    1.634   .     S
Si54   O191    1.618   .     S
Si54   O201    1.634   .     S
Si54   O569    1.626   .     S
Si55   O191    1.634   .     S
Si55   O192    1.627   .     S
Si55   O196    1.638   .     S
Si55   O197    1.601   .     S
Si56   O192    1.616   .     S
Si56   O193    1.634   .     S
Si56   O224    1.623   .     S
Si56   O571    1.630   .     S
Si57   O193    1.630   .     S
Si57   O194    1.622   .     S
Si57   O221    1.621   .     S
Si57   O572    1.626   .     S
Si58   O194    1.625   .     S
Si58   O195    1.623   .     S
Si58   O198    1.621   .     S
Si58   O206    1.630   1_655 S
Si59   O195    1.628   .     S
Si59   O196    1.623   .     S
Si59   O204    1.624   .     S
Si59   O570    1.626   .     S
Si60   O117    1.622   .     S
Si60   O207    1.618   .     S
Si60   O221    1.624   .     S
Si60   O222    1.628   .     S
Si61   O207    1.619   .     S
Si61   O208    1.626   .     S
Si61   O212    1.617   .     S
Si61   O219    1.628   .     S
Si62   O203    1.619   .     S
Si62   O204    1.622   .     S
Si62   O208    1.627   1_556 S
Si62   O209    1.632   .     S
Si63   O200    1.637   .     S
Si63   O201    1.621   .     S
Si63   O209    1.613   .     S
Si63   O210    1.618   1_556 S
Si64   O210    1.626   .     S
Si64   O211    1.620   .     S
Si64   O220    1.630   .     S
Si64   O227    1.625   .     S
Si65   O211    1.629   .     S
Si65   O212    1.620   .     S
Si65   O224    1.624   .     S
Si65   O225    1.624   .     S
Si66   O118    1.630   .     S
Si66   O213    1.619   .     S
Si66   O223    1.627   .     S
Si66   O285    1.621   .     S
Si67   O213    1.617   .     S
Si67   O214    1.618   .     S
Si67   O218    1.630   .     S
Si67   O219    1.621   .     S
Si68   O202    1.610   .     S
Si68   O214    1.621   1_556 S
Si68   O215    1.643   .     S
Si68   O287    1.625   .     S
Si69   O199    1.632   .     S
Si69   O215    1.625   .     S
Si69   O216    1.617   1_556 S
Si69   O288    1.627   .     S
Si70   O216    1.628   .     S
Si70   O217    1.626   .     S
Si70   O220    1.622   .     S
Si70   O228    1.626   .     S
Si71   O217    1.634   .     S
Si71   O218    1.626   .     S
Si71   O226    1.618   .     S
Si71   O286    1.624   .     S
Si72   O183    1.622   .     S
Si72   O229    1.625   .     S
Si72   O243    1.626   .     S
Si72   O244    1.629   .     S
Si73   O229    1.624   .     S
Si73   O230    1.624   .     S
Si73   O234    1.620   .     S
Si73   O241    1.626   .     S
Si74   O230    1.623   .     S
Si74   O231    1.626   .     S
Si74   O269    1.627   .     S
Si74   O270    1.624   .     S
Si75   O231    1.624   .     S
Si75   O232    1.621   .     S
Si75   O266    1.624   .     S
Si75   O267    1.625   .     S
Si76   O232    1.627   .     S
Si76   O233    1.623   .     S
Si76   O242    1.628   .     S
Si76   O249    1.623   1_455 S
Si77   O233    1.622   .     S
Si77   O234    1.623   .     S
Si77   O246    1.623   .     S
Si77   O247    1.628   .     S
Si78   O184    1.629   .     S
Si78   O235    1.622   .     S
Si78   O245    1.627   .     S
Si78   O273    1.622   .     S
Si79   O235    1.620   .     S
Si79   O236    1.619   .     S
Si79   O240    1.626   .     S
Si79   O241    1.623   .     S
Si80   O236    1.621   .     S
Si80   O237    1.630   .     S
Si80   O268    1.622   .     S
Si80   O275    1.624   .     S
Si81   O237    1.633   .     S
Si81   O238    1.624   .     S
Si81   O265    1.622   .     S
Si81   O276    1.623   .     S
Si82   O238    1.627   .     S
Si82   O239    1.628   .     S
Si82   O242    1.625   .     S
Si82   O250    1.626   1_455 S
Si83   O239    1.627   .     S
Si83   O240    1.631   .     S
Si83   O248    1.626   .     S
Si83   O274    1.623   .     S
Si84   O161    1.622   .     S
Si84   O251    1.625   .     S
Si84   O265    1.627   .     S
Si84   O266    1.626   .     S
Si85   O251    1.623   .     S
Si85   O252    1.625   .     S
Si85   O256    1.621   .     S
Si85   O263    1.623   .     S
Si86   O247    1.625   .     S
Si86   O248    1.627   .     S
Si86   O252    1.623   1_554 S
Si86   O253    1.628   .     S
Si87   O244    1.623   .     S
Si87   O245    1.625   .     S
Si87   O253    1.623   .     S
Si87   O254    1.621   1_554 S
Si88   O254    1.627   .     S
Si88   O255    1.623   .     S
Si88   O264    1.626   .     S
Si88   O271    1.623   .     S
Si89   O255    1.622   .     S
Si89   O256    1.621   .     S
Si89   O268    1.625   .     S
Si89   O269    1.626   .     S
Si90   O162    1.628   .     S
Si90   O257    1.623   .     S
Si90   O267    1.630   .     S
Si90   O277    1.620   .     S
Si91   O257    1.618   .     S
Si91   O258    1.618   .     S
Si91   O262    1.627   .     S
Si91   O263    1.624   .     S
Si92   O246    1.622   .     S
Si92   O258    1.622   1_554 S
Si92   O259    1.632   .     S
Si92   O279    1.623   .     S
Si93   O243    1.623   .     S
Si93   O259    1.631   .     S
Si93   O260    1.624   1_554 S
Si93   O280    1.625   .     S
Si94   O260    1.626   .     S
Si94   O261    1.625   .     S
Si94   O264    1.626   .     S
Si94   O272    1.625   .     S
Si95   O261    1.627   .     S
Si95   O262    1.629   .     S
Si95   O270    1.626   .     S
Si95   O278    1.621   .     S
Al96   O185    1.891   .     S
Al96   O186    1.714   .     S
Al96   O190    1.704   .     S
Al96   O197    1.715   .     S
O117   Si5     1.620   1_655 S
O118   Si11    1.625   1_655 S
O120   Si15    1.623   1_556 S
O122   Si16    1.620   1_556 S
O126   Si21    1.625   1_556 S
O128   Si22    1.621   1_556 S
O161   Si29    1.626   1_455 S
O162   Si35    1.626   1_455 S
O164   Si39    1.622   1_554 S
O166   Si40    1.619   1_554 S
O170   Si45    1.624   1_554 S
O172   Si46    1.619   1_554 S
O205   Si52    1.623   1_455 S
O206   Si58    1.630   1_455 S
O208   Si62    1.627   1_554 S
O210   Si63    1.618   1_554 S
O214   Si68    1.621   1_554 S
O216   Si69    1.617   1_554 S
O249   Si76    1.623   1_655 S
O250   Si82    1.626   1_655 S
O252   Si86    1.623   1_556 S
O254   Si87    1.621   1_556 S
O258   Si92    1.622   1_556 S
O260   Si93    1.624   1_556 S
O277   Si307   1.622   1_545 S
O278   Si312   1.622   1_545 S
O279   Si309   1.623   1_545 S
O280   Si310   1.625   1_545 S
O281   Si342   1.626   1_545 S
O282   Si347   1.626   1_545 S
O283   Si344   1.630   1_545 S
O284   Si345   1.626   1_545 S
Si289  O385    1.620   .     S
Si289  O399    1.626   .     S
Si289  O400    1.630   .     S
Si289  O515    1.621   .     S
Si290  O385    1.620   .     S
Si290  O386    1.624   .     S
Si290  O390    1.618   .     S
Si290  O397    1.626   .     S
Si291  O386    1.622   .     S
Si291  O387    1.623   .     S
Si291  O425    1.627   .     S
Si291  O426    1.626   .     S
Si292  O387    1.622   .     S
Si292  O388    1.617   .     S
Si292  O422    1.625   .     S
Si292  O423    1.623   .     S
Si293  O388    1.627   .     S
Si293  O389    1.622   .     S
Si293  O398    1.625   .     S
Si293  O405    1.620   1_455 S
Si294  O389    1.620   .     S
Si294  O390    1.622   .     S
Si294  O402    1.622   .     S
Si294  O403    1.627   .     S
Si295  O391    1.619   .     S
Si295  O401    1.630   .     S
Si295  O516    1.629   .     S
Si295  O561    1.621   .     S
Si296  O391    1.619   .     S
Si296  O392    1.624   .     S
Si296  O396    1.624   .     S
Si296  O397    1.622   .     S
Si297  O392    1.625   .     S
Si297  O393    1.630   .     S
Si297  O424    1.622   .     S
Si297  O563    1.623   .     S
Si298  O393    1.635   .     S
Si298  O394    1.619   .     S
Si298  O421    1.619   .     S
Si298  O564    1.624   .     S
Si299  O394    1.623   .     S
Si299  O395    1.628   .     S
Si299  O398    1.620   .     S
Si299  O406    1.625   1_455 S
Si300  O395    1.626   .     S
Si300  O396    1.629   .     S
Si300  O404    1.628   .     S
Si300  O562    1.623   .     S
Si301  O407    1.624   .     S
Si301  O421    1.626   .     S
Si301  O422    1.628   .     S
Si301  O493    1.614   .     S
Si302  O407    1.619   .     S
Si302  O408    1.627   .     S
Si302  O412    1.621   .     S
Si302  O419    1.622   .     S
Si303  O403    1.624   .     S
Si303  O404    1.627   .     S
Si303  O408    1.623   1_554 S
Si303  O409    1.629   .     S
Si304  O400    1.623   .     S
Si304  O401    1.626   .     S
Si304  O409    1.620   .     S
Si304  O410    1.620   1_554 S
Si305  O410    1.623   .     S
Si305  O411    1.619   .     S
Si305  O420    1.619   .     S
Si305  O427    1.628   .     S
Si306  O411    1.626   .     S
Si306  O412    1.619   .     S
Si306  O424    1.624   .     S
Si306  O425    1.623   .     S
Si307  O413    1.623   .     S
Si307  O423    1.627   .     S
Si307  O494    1.628   .     S
Si307  O277    1.622   1_565 S
Si308  O413    1.617   .     S
Si308  O414    1.623   .     S
Si308  O418    1.625   .     S
Si308  O419    1.622   .     S
Si309  O402    1.620   .     S
Si309  O414    1.625   1_554 S
Si309  O415    1.634   .     S
Si309  O279    1.623   1_565 S
Si310  O399    1.624   .     S
Si310  O415    1.632   .     S
Si310  O416    1.621   1_554 S
Si310  O280    1.625   1_565 S
Si311  O416    1.622   .     S
Si311  O417    1.626   .     S
Si311  O420    1.626   .     S
Si311  O428    1.624   .     S
Si312  O417    1.629   .     S
Si312  O418    1.625   .     S
Si312  O426    1.627   .     S
Si312  O278    1.622   1_565 S
Si313  O429    1.619   .     S
Si313  O443    1.630   .     S
Si313  O444    1.627   .     S
Si313  O559    1.622   .     S
Si314  O429    1.622   .     S
Si314  O430    1.627   .     S
Si314  O434    1.621   .     S
Si314  O441    1.624   .     S
Si315  O430    1.625   .     S
Si315  O431    1.625   .     S
Si315  O469    1.626   .     S
Si315  O470    1.630   .     S
Si316  O431    1.621   .     S
Si316  O432    1.620   .     S
Si316  O466    1.623   .     S
Si316  O467    1.624   .     S
Si317  O432    1.627   .     S
Si317  O433    1.623   .     S
Si317  O442    1.625   .     S
Si317  O449    1.626   1_655 S
Si318  O433    1.622   .     S
Si318  O434    1.623   .     S
Si318  O446    1.624   .     S
Si318  O447    1.626   .     S
Si319  O435    1.621   .     S
Si319  O445    1.627   .     S
Si319  O560    1.632   .     S
Si319  O569    1.624   .     S
Si320  O435    1.620   .     S
Si320  O436    1.622   .     S
Si320  O440    1.626   .     S
Si320  O441    1.626   .     S
Si321  O436    1.627   .     S
Si321  O437    1.635   .     S
Si321  O468    1.624   .     S
Si321  O571    1.624   .     S
Si322  O437    1.632   .     S
Si322  O438    1.622   .     S
Si322  O465    1.623   .     S
Si322  O572    1.623   .     S
Si323  O438    1.623   .     S
Si323  O439    1.626   .     S
Si323  O442    1.624   .     S
Si323  O450    1.626   1_655 S
Si324  O439    1.630   .     S
Si324  O440    1.630   .     S
Si324  O448    1.627   .     S
Si324  O570    1.619   .     S
Si325  O451    1.622   .     S
Si325  O465    1.624   .     S
Si325  O466    1.626   .     S
Si325  O537    1.623   .     S
Si326  O451    1.621   .     S
Si326  O452    1.624   .     S
Si326  O456    1.620   .     S
Si326  O463    1.624   .     S
Si327  O447    1.627   .     S
Si327  O448    1.623   .     S
Si327  O452    1.622   1_556 S
Si327  O453    1.626   .     S
Si328  O444    1.627   .     S
Si328  O445    1.621   .     S
Si328  O453    1.620   .     S
Si328  O454    1.619   1_556 S
Si329  O454    1.626   .     S
Si329  O455    1.621   .     S
Si329  O464    1.625   .     S
Si329  O471    1.625   .     S
Si330  O455    1.624   .     S
Si330  O456    1.623   .     S
Si330  O468    1.623   .     S
Si330  O469    1.627   .     S
Si331  O457    1.623   .     S
Si331  O467    1.628   .     S
Si331  O538    1.631   .     S
Si331  O573    1.620   .     S
Si332  O457    1.620   .     S
Si332  O458    1.622   .     S
Si332  O462    1.628   .     S
Si332  O463    1.621   .     S
Si333  O446    1.621   .     S
Si333  O458    1.624   1_556 S
Si333  O459    1.636   .     S
Si333  O575    1.621   .     S
Si334  O443    1.623   .     S
Si334  O459    1.628   .     S
Si334  O460    1.619   1_556 S
Si334  O576    1.632   .     S
Si335  O460    1.625   .     S
Si335  O461    1.627   .     S
Si335  O464    1.620   .     S
Si335  O472    1.627   .     S
Si336  O461    1.630   .     S
Si336  O462    1.628   .     S
Si336  O470    1.628   .     S
Si336  O574    1.622   .     S
Si337  O427    1.606   .     S
Si337  O473    1.694   .     S
Si337  O487    1.615   .     S
Si337  O488    1.598   .     S
Si338  O474    1.592   .     S
Si338  O475    1.639   .     S
Si338  O513    1.636   .     S
Si338  O514    1.639   .     S
Si339  O475    1.623   .     S
Si339  O476    1.619   .     S
Si339  O510    1.628   .     S
Si339  O511    1.629   .     S
Si340  O476    1.628   .     S
Si340  O477    1.615   .     S
Si340  O486    1.627   .     S
Si340  O493    1.623   1_655 S
Si341  O477    1.631   .     S
Si341  O478    1.592   .     S
Si341  O490    1.635   .     S
Si341  O491    1.637   .     S
Si342  O428    1.634   .     S
Si342  O479    1.618   .     S
Si342  O489    1.634   .     S
Si342  O281    1.626   1_565 S
Si343  O479    1.634   .     S
Si343  O480    1.627   .     S
Si343  O484    1.638   .     S
Si343  O485    1.601   .     S
Si344  O480    1.616   .     S
Si344  O481    1.634   .     S
Si344  O512    1.623   .     S
Si344  O283    1.630   1_565 S
Si345  O481    1.630   .     S
Si345  O482    1.622   .     S
Si345  O509    1.621   .     S
Si345  O284    1.626   1_565 S
Si346  O482    1.625   .     S
Si346  O483    1.623   .     S
Si346  O486    1.621   .     S
Si346  O494    1.630   1_655 S
Si347  O483    1.628   .     S
Si347  O484    1.623   .     S
Si347  O492    1.624   .     S
Si347  O282    1.626   1_565 S
Si348  O405    1.622   .     S
Si348  O495    1.618   .     S
Si348  O509    1.624   .     S
Si348  O510    1.628   .     S
Si349  O495    1.619   .     S
Si349  O496    1.626   .     S
Si349  O500    1.617   .     S
Si349  O507    1.628   .     S
Si350  O491    1.619   .     S
Si350  O492    1.622   .     S
Si350  O496    1.627   1_556 S
Si350  O497    1.632   .     S
Si351  O488    1.637   .     S
Si351  O489    1.621   .     S
Si351  O497    1.613   .     S
Si351  O498    1.618   1_556 S
Si352  O498    1.626   .     S
Si352  O499    1.620   .     S
Si352  O508    1.630   .     S
Si352  O515    1.625   .     S
Si353  O499    1.629   .     S
Si353  O500    1.620   .     S
Si353  O512    1.624   .     S
Si353  O513    1.624   .     S
Si354  O406    1.630   .     S
Si354  O501    1.619   .     S
Si354  O511    1.627   .     S
Si354  O573    1.621   .     S
Si355  O501    1.617   .     S
Si355  O502    1.618   .     S
Si355  O506    1.630   .     S
Si355  O507    1.621   .     S
Si356  O490    1.610   .     S
Si356  O502    1.621   1_556 S
Si356  O503    1.643   .     S
Si356  O575    1.625   .     S
Si357  O487    1.632   .     S
Si357  O503    1.625   .     S
Si357  O504    1.617   1_556 S
Si357  O576    1.627   .     S
Si358  O504    1.628   .     S
Si358  O505    1.626   .     S
Si358  O508    1.622   .     S
Si358  O516    1.626   .     S
Si359  O505    1.634   .     S
Si359  O506    1.626   .     S
Si359  O514    1.618   .     S
Si359  O574    1.624   .     S
Si360  O471    1.622   .     S
Si360  O517    1.625   .     S
Si360  O531    1.626   .     S
Si360  O532    1.629   .     S
Si361  O517    1.624   .     S
Si361  O518    1.624   .     S
Si361  O522    1.620   .     S
Si361  O529    1.626   .     S
Si362  O518    1.623   .     S
Si362  O519    1.626   .     S
Si362  O557    1.627   .     S
Si362  O558    1.624   .     S
Si363  O519    1.624   .     S
Si363  O520    1.621   .     S
Si363  O554    1.624   .     S
Si363  O555    1.625   .     S
Si364  O520    1.627   .     S
Si364  O521    1.623   .     S
Si364  O530    1.628   .     S
Si364  O537    1.623   1_455 S
Si365  O521    1.622   .     S
Si365  O522    1.623   .     S
Si365  O534    1.623   .     S
Si365  O535    1.628   .     S
Si366  O472    1.629   .     S
Si366  O523    1.622   .     S
Si366  O533    1.627   .     S
Si366  O561    1.622   .     S
Si367  O523    1.620   .     S
Si367  O524    1.619   .     S
Si367  O528    1.626   .     S
Si367  O529    1.623   .     S
Si368  O524    1.621   .     S
Si368  O525    1.630   .     S
Si368  O556    1.622   .     S
Si368  O563    1.624   .     S
Si369  O525    1.633   .     S
Si369  O526    1.624   .     S
Si369  O553    1.622   .     S
Si369  O564    1.623   .     S
Si370  O526    1.627   .     S
Si370  O527    1.628   .     S
Si370  O530    1.625   .     S
Si370  O538    1.626   1_455 S
Si371  O527    1.627   .     S
Si371  O528    1.631   .     S
Si371  O536    1.626   .     S
Si371  O562    1.623   .     S
Si372  O449    1.622   .     S
Si372  O539    1.625   .     S
Si372  O553    1.627   .     S
Si372  O554    1.626   .     S
Si373  O539    1.623   .     S
Si373  O540    1.625   .     S
Si373  O544    1.621   .     S
Si373  O551    1.623   .     S
Si374  O535    1.625   .     S
Si374  O536    1.627   .     S
Si374  O540    1.623   1_554 S
Si374  O541    1.628   .     S
Si375  O532    1.623   .     S
Si375  O533    1.625   .     S
Si375  O541    1.623   .     S
Si375  O542    1.621   1_554 S
Si376  O542    1.627   .     S
Si376  O543    1.623   .     S
Si376  O552    1.626   .     S
Si376  O559    1.623   .     S
Si377  O543    1.622   .     S
Si377  O544    1.621   .     S
Si377  O556    1.625   .     S
Si377  O557    1.626   .     S
Si378  O450    1.628   .     S
Si378  O545    1.623   .     S
Si378  O555    1.630   .     S
Si378  O565    1.620   .     S
Si379  O545    1.618   .     S
Si379  O546    1.618   .     S
Si379  O550    1.627   .     S
Si379  O551    1.624   .     S
Si380  O534    1.622   .     S
Si380  O546    1.622   1_554 S
Si380  O547    1.632   .     S
Si380  O567    1.623   .     S
Si381  O531    1.623   .     S
Si381  O547    1.631   .     S
Si381  O548    1.624   1_554 S
Si381  O568    1.625   .     S
Si382  O548    1.626   .     S
Si382  O549    1.625   .     S
Si382  O552    1.626   .     S
Si382  O560    1.625   .     S
Si383  O549    1.627   .     S
Si383  O550    1.629   .     S
Si383  O558    1.626   .     S
Si383  O566    1.621   .     S
Al384  O473    1.891   .     S
Al384  O474    1.714   .     S
Al384  O478    1.704   .     S
Al384  O485    1.715   .     S
O405   Si293   1.620   1_655 S
O406   Si299   1.625   1_655 S
O408   Si303   1.623   1_556 S
O410   Si304   1.620   1_556 S
O414   Si309   1.625   1_556 S
O416   Si310   1.621   1_556 S
O449   Si317   1.626   1_455 S
O450   Si323   1.626   1_455 S
O452   Si327   1.622   1_554 S
O454   Si328   1.619   1_554 S
O458   Si333   1.624   1_554 S
O460   Si334   1.619   1_554 S
O473   H577    1.008   .     S
O493   Si340   1.623   1_455 S
O494   Si346   1.630   1_455 S
O496   Si350   1.627   1_554 S
O498   Si351   1.618   1_554 S
O502   Si356   1.621   1_554 S
O504   Si357   1.617   1_554 S
O537   Si364   1.623   1_655 S
O538   Si370   1.626   1_655 S
O540   Si374   1.623   1_556 S
O542   Si375   1.621   1_556 S
O546   Si380   1.622   1_556 S
O548   Si381   1.624   1_556 S
H578   C584    1.090   .     S
H579   C585    1.086   .     S
H580   C582    1.090   .     S
H581   C583    1.086   .     S
C582   C583    1.370   .     D
C582   C584    1.430   .     S
C583   S586    1.726   .     S
C584   C585    1.371   .     D
C585   S586    1.728   .     S
