
#======================================================================
# CRYSTAL DATA
#----------------------------------------------------------------------
data_VESTA_phase_1

_chemical_name_common                  'ï¿½'
_cell_length_a                         20.382000
_cell_length_b                         20.165199
_cell_length_c                         13.574200
_cell_angle_alpha                      90
_cell_angle_beta                       90
_cell_angle_gamma                      90
_cell_volume                           5579.086950
_space_group_name_H-M_alt              'P 1'
_space_group_IT_number                 1

loop_
_space_group_symop_operation_xyz
   'x, y, z'

loop_
   _atom_site_label
   _atom_site_occupancy
   _atom_site_fract_x
   _atom_site_fract_y
   _atom_site_fract_z
   _atom_site_adp_type
   _atom_site_B_iso_or_equiv
   _atom_site_type_symbol
   Si1         1.0     0.428068     0.842249     0.150451    Biso  1.000000 Si
   Si2         1.0     0.313924     0.813596     0.301353    Biso  1.000000 Si
   Si3         1.0     0.279171     0.844792     0.516932    Biso  1.000000 Si
   Si4         1.0     0.123747     0.846183     0.519972    Biso  1.000000 Si
   Si5         1.0     0.070351     0.812470     0.309107    Biso  1.000000 Si
   Si6         1.0     0.188773     0.850337     0.176908    Biso  1.000000 Si
   Si7         1.0     0.266580     0.613810     0.533483    Biso  1.000000 Si
   Si8         1.0     0.113964     0.612539     0.518173    Biso  1.000000 Si
   Si9         1.0     0.067110     0.655380     0.304293    Biso  1.000000 Si
   Si10        1.0     0.186403     0.605811     0.184641    Biso  1.000000 Si
   Si11        1.0     0.080800     0.725962     0.664102    Biso  1.000000 Si
   Si12        1.0     0.186258     0.756355     0.819596    Biso  1.000000 Si
   Si13        1.0     0.218937     0.724908     0.040438    Biso  1.000000 Si
   Si14        1.0     0.376255     0.720195     0.022628    Biso  1.000000 Si
   Si15        1.0     0.422675     0.753444     0.807880    Biso  1.000000 Si
   Si16        1.0     0.304279     0.727197     0.674601    Biso  1.000000 Si
   Si17        1.0     0.076970     0.956111     0.666908    Biso  1.000000 Si
   Si18        1.0     0.189105     0.914578     0.812547    Biso  1.000000 Si
   Si19        1.0     0.228697     0.958774     0.026215    Biso  1.000000 Si
   Si20        1.0     0.381832     0.958237     0.016593    Biso  1.000000 Si
   Si21        1.0     0.429458     0.911640     0.805599    Biso  1.000000 Si
   Si22        1.0     0.311208     0.952889     0.674706    Biso  1.000000 Si
   Si23        1.0     0.575935     0.339818     0.828556    Biso  1.000000 Si
   Si24        1.0     0.691491     0.311541     0.679421    Biso  1.000000 Si
   Si25        1.0     0.718907     0.348747     0.461545    Biso  1.000000 Si
   Si26        1.0     0.876749     0.349618     0.463379    Biso  1.000000 Si
   Si27        1.0     0.927105     0.311995     0.674261    Biso  1.000000 Si
   Si28        1.0     0.814664     0.336785     0.821336    Biso  1.000000 Si
   Si29        1.0     0.576269     0.111318     0.816226    Biso  1.000000 Si
   Si30        1.0     0.691629     0.154553     0.671911    Biso  1.000000 Si
   Si31        1.0     0.729550     0.109622     0.458569    Biso  1.000000 Si
   Si32        1.0     0.883127     0.109133     0.466775    Biso  1.000000 Si
   Si33        1.0     0.931115     0.154377     0.676637    Biso  1.000000 Si
   Si34        1.0     0.812871     0.114285     0.808307    Biso  1.000000 Si
   Si35        1.0     0.925098     0.226839     0.332713    Biso  1.000000 Si
   Si36        1.0     0.808680     0.255220     0.185605    Biso  1.000000 Si
   Si37        1.0     0.779976     0.219151     0.966099    Biso  1.000000 Si
   Si38        1.0     0.621615     0.218290     0.965726    Biso  1.000000 Si
   Si39        1.0     0.572051     0.255717     0.178572    Biso  1.000000 Si
   Si40        1.0     0.683874     0.227594     0.325435    Biso  1.000000 Si
   Si41        1.0     0.922499     0.457073     0.313290    Biso  1.000000 Si
   Si42        1.0     0.808241     0.413982     0.169385    Biso  1.000000 Si
   Si43        1.0     0.769420     0.454210     0.953408    Biso  1.000000 Si
   Si44        1.0     0.615547     0.456517     0.963803    Biso  1.000000 Si
   Si45        1.0     0.568311     0.413464     0.177109    Biso  1.000000 Si
   Si46        1.0     0.686984     0.457494     0.304627    Biso  1.000000 Si
   Si47        1.0     0.570127     0.725813     0.833207    Biso  1.000000 Si
   Si48        1.0     0.685916     0.753731     0.683674    Biso  1.000000 Si
   Si49        1.0     0.720357     0.720512     0.468782    Biso  1.000000 Si
   Si50        1.0     0.876531     0.720113     0.460253    Biso  1.000000 Si
   Si51        1.0     0.931354     0.755734     0.669024    Biso  1.000000 Si
   Si52        1.0     0.815619     0.723721     0.811040    Biso  1.000000 Si
   Si53        1.0     0.576079     0.955866     0.812024    Biso  1.000000 Si
   Si54        1.0     0.688303     0.913293     0.666054    Biso  1.000000 Si
   Si55        1.0     0.730713     0.954199     0.453416    Biso  1.000000 Si
   Si56        1.0     0.884464     0.956553     0.460745    Biso  1.000000 Si
   Si57        1.0     0.932069     0.913130     0.672567    Biso  1.000000 Si
   Si58        1.0     0.810877     0.957717     0.797492    Biso  1.000000 Si
   Si59        1.0     0.921249     0.841283     0.317699    Biso  1.000000 Si
   Si60        1.0     0.811284     0.811234     0.168619    Biso  1.000000 Si
   Si61        1.0     0.780417     0.844237     0.947357    Biso  1.000000 Si
   Si62        1.0     0.624336     0.846894     0.958098    Biso  1.000000 Si
   Si63        1.0     0.691204     0.837950     0.317170    Biso  1.000000 Si
   Si64        1.0     0.921663     0.612013     0.310448    Biso  1.000000 Si
   Si65        1.0     0.810381     0.653591     0.164448    Biso  1.000000 Si
   Si66        1.0     0.770517     0.609517     0.948694    Biso  1.000000 Si
   Si67        1.0     0.617737     0.609193     0.962290    Biso  1.000000 Si
   Si68        1.0     0.690578     0.615279     0.306727    Biso  1.000000 Si
   Si69        1.0     0.423499     0.229294     0.148734    Biso  1.000000 Si
   Si70        1.0     0.307080     0.259585     0.299420    Biso  1.000000 Si
   Si71        1.0     0.281496     0.218242     0.515633    Biso  1.000000 Si
   Si72        1.0     0.123751     0.217947     0.513030    Biso  1.000000 Si
   Si73        1.0     0.073064     0.254587     0.303002    Biso  1.000000 Si
   Si74        1.0     0.185613     0.230481     0.155009    Biso  1.000000 Si
   Si75        1.0     0.422713     0.455784     0.161791    Biso  1.000000 Si
   Si76        1.0     0.267480     0.459214     0.519947    Biso  1.000000 Si
   Si77        1.0     0.114598     0.459008     0.508756    Biso  1.000000 Si
   Si78        1.0     0.067885     0.411756     0.299823    Biso  1.000000 Si
   Si79        1.0     0.184340     0.452584     0.164205    Biso  1.000000 Si
   Si80        1.0     0.074441     0.341320     0.641353    Biso  1.000000 Si
   Si81        1.0     0.190777     0.312919     0.787579    Biso  1.000000 Si
   Si82        1.0     0.219850     0.346083     0.007771    Biso  1.000000 Si
   Si83        1.0     0.378264     0.348407     0.009058    Biso  1.000000 Si
   Si84        1.0     0.428280     0.313488     0.796620    Biso  1.000000 Si
   Si85        1.0     0.316286     0.340145     0.649891    Biso  1.000000 Si
   Si86        1.0     0.076802     0.110472     0.663787    Biso  1.000000 Si
   Si87        1.0     0.190609     0.154404     0.806078    Biso  1.000000 Si
   Si88        1.0     0.230092     0.115085     0.022403    Biso  1.000000 Si
   Si89        1.0     0.383098     0.112335     0.015469    Biso  1.000000 Si
   Si90        1.0     0.431385     0.155240     0.801726    Biso  1.000000 Si
   Si91        1.0     0.312812     0.109861     0.673009    Biso  1.000000 Si
   Si92        1.0     0.577863     0.812975     0.171279    Biso  1.000000 Si
   Si93        1.0     0.573176     0.654897     0.173826    Biso  1.000000 Si
   Si94        1.0     0.424579     0.609945     0.169678    Biso  1.000000 Si
   Si95        1.0     0.305519     0.416914     0.306437    Biso  1.000000 Si
   Al1         1.0     0.309401     0.650462     0.316496    Biso  1.000000 Al
   O1          1.0     0.378417     0.842067     0.243028    Biso  1.000000 O
   O2          1.0     0.320394     0.839370     0.415578    Biso  1.000000 O
   O3          1.0     0.201015     0.846162     0.492241    Biso  1.000000 O
   O4          1.0     0.079662     0.838406     0.421600    Biso  1.000000 O
   O5          1.0     0.118895     0.851664     0.234871    Biso  1.000000 O
   O6          1.0     0.248979     0.849274     0.254356    Biso  1.000000 O
   O7          1.0     0.379823     0.614807     0.265739    Biso  1.000000 O
   O8          1.0     0.316383     0.632551     0.444940    Biso  1.000000 O
   O9          1.0     0.191038     0.633245     0.507729    Biso  1.000000 O
   O10         1.0     0.077095     0.625624     0.414599    Biso  1.000000 O
   O11         1.0     0.110823     0.616593     0.223551    Biso  1.000000 O
   O12         1.0     0.237543     0.615070     0.272538    Biso  1.000000 O
   O13         1.0     0.309390     0.735016     0.294121    Biso  1.000000 O
   O14         1.0     0.085926     0.733638     0.303770    Biso  1.000000 O
   O15         1.0     0.423643     0.912803     0.092138    Biso  1.000000 O
   O16         1.0     0.414398     0.782208     0.073056    Biso  1.000000 O
   O17         1.0     0.396959     0.650820     0.074411    Biso  1.000000 O
   O18         1.0     0.191891     0.918569     0.113054    Biso  1.000000 O
   O19         1.0     0.190512     0.786635     0.103913    Biso  1.000000 O
   O20         1.0     0.199375     0.655181     0.090978    Biso  1.000000 O
   O21         1.0     0.994761     0.827221     0.277598    Biso  1.000000 O
   O22         1.0     0.989870     0.646330     0.276043    Biso  1.000000 O
   O23         1.0     0.127811     0.718867     0.760100    Biso  1.000000 O
   O24         1.0     0.186711     0.727801     0.930788    Biso  1.000000 O
   O25         1.0     0.298071     0.732344     0.030504    Biso  1.000000 O
   O26         1.0     0.398134     0.715932     0.907163    Biso  1.000000 O
   O27         1.0     0.380028     0.728691     0.713379    Biso  1.000000 O
   O28         1.0     0.256928     0.742364     0.767800    Biso  1.000000 O
   O29         1.0     0.130102     0.952110     0.755355    Biso  1.000000 O
   O30         1.0     0.192084     0.945126     0.922336    Biso  1.000000 O
   O31         1.0     0.305171     0.935073     0.018175    Biso  1.000000 O
   O32         1.0     0.411022     0.951448     0.905618    Biso  1.000000 O
   O33         1.0     0.385276     0.939359     0.714942    Biso  1.000000 O
   O34         1.0     0.258930     0.927431     0.757359    Biso  1.000000 O
   O35         1.0     0.173163     0.835888     0.817538    Biso  1.000000 O
   O36         1.0     0.415701     0.833060     0.822247    Biso  1.000000 O
   O37         1.0     0.079612     0.656093     0.604588    Biso  1.000000 O
   O38         1.0     0.108841     0.784835     0.594132    Biso  1.000000 O
   O39         1.0     0.103731     0.916043     0.571276    Biso  1.000000 O
   O40         1.0     0.290064     0.652694     0.633384    Biso  1.000000 O
   O41         1.0     0.294465     0.781345     0.587754    Biso  1.000000 O
   O42         1.0     0.300138     0.913055     0.572487    Biso  1.000000 O
   O43         1.0     0.498311     0.733042     0.782909    Biso  1.000000 O
   O44         1.0     0.506392     0.923618     0.778516    Biso  1.000000 O
   O45         1.0     0.632187     0.343119     0.743968    Biso  1.000000 O
   O46         1.0     0.695129     0.352203     0.575854    Biso  1.000000 O
   O47         1.0     0.797877     0.339620     0.454726    Biso  1.000000 O
   O48         1.0     0.899096     0.350872     0.577870    Biso  1.000000 O
   O49         1.0     0.886842     0.335850     0.771228    Biso  1.000000 O
   O50         1.0     0.760428     0.319328     0.737608    Biso  1.000000 O
   O51         1.0     0.632474     0.120206     0.732743    Biso  1.000000 O
   O52         1.0     0.694142     0.119537     0.564710    Biso  1.000000 O
   O53         1.0     0.806280     0.131712     0.466940    Biso  1.000000 O
   O54         1.0     0.911601     0.112841     0.578302    Biso  1.000000 O
   O55         1.0     0.886977     0.128411     0.768888    Biso  1.000000 O
   O56         1.0     0.761234     0.144377     0.728303    Biso  1.000000 O
   O57         1.0     0.677563     0.233475     0.658841    Biso  1.000000 O
   O58         1.0     0.917597     0.232726     0.656750    Biso  1.000000 O
   O59         1.0     0.575078     0.410151     0.887319    Biso  1.000000 O
   O60         1.0     0.588804     0.279677     0.905688    Biso  1.000000 O
   O61         1.0     0.598923     0.148379     0.917231    Biso  1.000000 O
   O62         1.0     0.801618     0.410211     0.866070    Biso  1.000000 O
   O63         1.0     0.812276     0.282350     0.909581    Biso  1.000000 O
   O64         1.0     0.802491     0.150115     0.914495    Biso  1.000000 O
   O65         1.0     0.003577     0.330110     0.693530    Biso  1.000000 O
   O66         1.0     0.007955     0.142294     0.702715    Biso  1.000000 O
   O67         1.0     0.869872     0.224587     0.246685    Biso  1.000000 O
   O68         1.0     0.805021     0.218407     0.079442    Biso  1.000000 O
   O69         1.0     0.700639     0.226205     0.961063    Biso  1.000000 O
   O70         1.0     0.596735     0.218923     0.078823    Biso  1.000000 O
   O71         1.0     0.612777     0.227167     0.271997    Biso  1.000000 O
   O72         1.0     0.740535     0.242519     0.244367    Biso  1.000000 O
   O73         1.0     0.867957     0.450085     0.226599    Biso  1.000000 O
   O74         1.0     0.807179     0.440909     0.056803    Biso  1.000000 O
   O75         1.0     0.692280     0.433942     0.965743    Biso  1.000000 O
   O76         1.0     0.585182     0.450391     0.073689    Biso  1.000000 O
   O77         1.0     0.612356     0.445989     0.265123    Biso  1.000000 O
   O78         1.0     0.738350     0.431583     0.221646    Biso  1.000000 O
   O79         1.0     0.819269     0.334416     0.170605    Biso  1.000000 O
   O80         1.0     0.585118     0.335063     0.166979    Biso  1.000000 O
   O81         1.0     0.924062     0.157868     0.394453    Biso  1.000000 O
   O82         1.0     0.912576     0.288642     0.407177    Biso  1.000000 O
   O83         1.0     0.897425     0.419680     0.413004    Biso  1.000000 O
   O84         1.0     0.694310     0.155397     0.375870    Biso  1.000000 O
   O85         1.0     0.684133     0.285554     0.408948    Biso  1.000000 O
   O86         1.0     0.697182     0.417857     0.408160    Biso  1.000000 O
   O87         1.0     0.495084     0.240516     0.198420    Biso  1.000000 O
   O88         1.0     0.491339     0.424230     0.203526    Biso  1.000000 O
   O89         1.0     0.625099     0.723588     0.746695    Biso  1.000000 O
   O90         1.0     0.683153     0.719870     0.574845    Biso  1.000000 O
   O91         1.0     0.798921     0.725168     0.486759    Biso  1.000000 O
   O92         1.0     0.919009     0.723234     0.560991    Biso  1.000000 O
   O93         1.0     0.883976     0.721396     0.750392    Biso  1.000000 O
   O94         1.0     0.754969     0.734977     0.735450    Biso  1.000000 O
   O95         1.0     0.627548     0.949989     0.720788    Biso  1.000000 O
   O96         1.0     0.688297     0.935369     0.551075    Biso  1.000000 O
   O97         1.0     0.807498     0.935593     0.472988    Biso  1.000000 O
   O98         1.0     0.921028     0.947619     0.565806    Biso  1.000000 O
   O99         1.0     0.884537     0.946753     0.754723    Biso  1.000000 O
   O100        1.0     0.757957     0.934866     0.714538    Biso  1.000000 O
   O101        1.0     0.678695     0.833629     0.675664    Biso  1.000000 O
   O102        1.0     0.915195     0.834634     0.664408    Biso  1.000000 O
   O103        1.0     0.571635     0.656002     0.893920    Biso  1.000000 O
   O104        1.0     0.581829     0.787368     0.908326    Biso  1.000000 O
   O105        1.0     0.604591     0.917481     0.908612    Biso  1.000000 O
   O106        1.0     0.808651     0.652408     0.865753    Biso  1.000000 O
   O107        1.0     0.817701     0.783513     0.891639    Biso  1.000000 O
   O108        1.0     0.800268     0.914830     0.897786    Biso  1.000000 O
   O109        1.0     0.006898     0.743244     0.700934    Biso  1.000000 O
   O110        1.0     0.007886     0.924381     0.705518    Biso  1.000000 O
   O111        1.0     0.872844     0.846698     0.222835    Biso  1.000000 O
   O112        1.0     0.802232     0.846158     0.061961    Biso  1.000000 O
   O113        1.0     0.701613     0.831856     0.938431    Biso  1.000000 O
   O114        1.0     0.608492     0.850332     0.075020    Biso  1.000000 O
   O115        1.0     0.618713     0.834646     0.268685    Biso  1.000000 O
   O116        1.0     0.744979     0.820337     0.233151    Biso  1.000000 O
   O117        1.0     0.870300     0.616216     0.219140    Biso  1.000000 O
   O118        1.0     0.802968     0.621556     0.055981    Biso  1.000000 O
   O119        1.0     0.693769     0.632674     0.949865    Biso  1.000000 O
   O120        1.0     0.597171     0.613652     0.077428    Biso  1.000000 O
   O121        1.0     0.616401     0.631113     0.268909    Biso  1.000000 O
   O122        1.0     0.742395     0.642069     0.225368    Biso  1.000000 O
   O123        1.0     0.825352     0.732323     0.155645    Biso  1.000000 O
   O124        1.0     0.584277     0.733342     0.153176    Biso  1.000000 O
   O125        1.0     0.919643     0.910872     0.377959    Biso  1.000000 O
   O126        1.0     0.896242     0.781345     0.388695    Biso  1.000000 O
   O127        1.0     0.891091     0.649873     0.406152    Biso  1.000000 O
   O128        1.0     0.703491     0.912026     0.360173    Biso  1.000000 O
   O129        1.0     0.695489     0.784303     0.406397    Biso  1.000000 O
   O130        1.0     0.701829     0.651770     0.412216    Biso  1.000000 O
   O131        1.0     0.502691     0.834415     0.190925    Biso  1.000000 O
   O132        1.0     0.497541     0.638677     0.199172    Biso  1.000000 O
   O133        1.0     0.368779     0.233366     0.234983    Biso  1.000000 O
   O134        1.0     0.304007     0.216410     0.400736    Biso  1.000000 O
   O135        1.0     0.202455     0.227447     0.523659    Biso  1.000000 O
   O136        1.0     0.102238     0.215056     0.398066    Biso  1.000000 O
   O137        1.0     0.113365     0.233386     0.204904    Biso  1.000000 O
   O138        1.0     0.239618     0.249875     0.237973    Biso  1.000000 O
   O139        1.0     0.367988     0.446948     0.247542    Biso  1.000000 O
   O140        1.0     0.302125     0.454561     0.412183    Biso  1.000000 O
   O141        1.0     0.191223     0.435535     0.512311    Biso  1.000000 O
   O142        1.0     0.088313     0.455201     0.395966    Biso  1.000000 O
   O143        1.0     0.111396     0.433909     0.205341    Biso  1.000000 O
   O144        1.0     0.237914     0.428402     0.246019    Biso  1.000000 O
   O145        1.0     0.316062     0.337807     0.325259    Biso  1.000000 O
   O146        1.0     0.079770     0.333706     0.324115    Biso  1.000000 O
   O147        1.0     0.421697     0.156829     0.096569    Biso  1.000000 O
   O148        1.0     0.411783     0.285758     0.064933    Biso  1.000000 O
   O149        1.0     0.399815     0.417076     0.062312    Biso  1.000000 O
   O150        1.0     0.198145     0.156142     0.113318    Biso  1.000000 O
   O151        1.0     0.188587     0.282009     0.063126    Biso  1.000000 O
   O152        1.0     0.196905     0.413901     0.060951    Biso  1.000000 O
   O153        1.0     0.996955     0.234849     0.282994    Biso  1.000000 O
   O154        1.0     0.990809     0.424535     0.274561    Biso  1.000000 O
   O155        1.0     0.130865     0.345588     0.725471    Biso  1.000000 O
   O156        1.0     0.193742     0.347815     0.894984    Biso  1.000000 O
   O157        1.0     0.299360     0.339713     0.010874    Biso  1.000000 O
   O158        1.0     0.404595     0.351012     0.896360    Biso  1.000000 O
   O159        1.0     0.387512     0.342431     0.703456    Biso  1.000000 O
   O160        1.0     0.259970     0.326089     0.731721    Biso  1.000000 O
   O161        1.0     0.130786     0.116486     0.751211    Biso  1.000000 O
   O162        1.0     0.191380     0.131262     0.920490    Biso  1.000000 O
   O163        1.0     0.306873     0.136474     0.008918    Biso  1.000000 O
   O164        1.0     0.416449     0.121000     0.907586    Biso  1.000000 O
   O165        1.0     0.386473     0.122190     0.715864    Biso  1.000000 O
   O166        1.0     0.260416     0.136080     0.754758    Biso  1.000000 O
   O167        1.0     0.178452     0.233758     0.798411    Biso  1.000000 O
   O168        1.0     0.416092     0.234244     0.808145    Biso  1.000000 O
   O169        1.0     0.071928     0.410364     0.579483    Biso  1.000000 O
   O170        1.0     0.087707     0.280170     0.566013    Biso  1.000000 O
   O171        1.0     0.101533     0.148925     0.565039    Biso  1.000000 O
   O172        1.0     0.305671     0.411670     0.597502    Biso  1.000000 O
   O173        1.0     0.316741     0.281265     0.568316    Biso  1.000000 O
   O174        1.0     0.303423     0.149519     0.569283    Biso  1.000000 O
   O175        1.0     0.505321     0.329473     0.775813    Biso  1.000000 O
   O176        1.0     0.508284     0.143177     0.774462    Biso  1.000000 O
   O177        1.0     0.433534     0.532965     0.133662    Biso  1.000000 O
   O178        1.0     0.190119     0.530559     0.140171    Biso  1.000000 O
   O179        1.0     0.272856     0.534830     0.560558    Biso  1.000000 O
   O180        1.0     0.107059     0.534643     0.548004    Biso  1.000000 O
   O181        1.0     0.066370     0.033069     0.635559    Biso  1.000000 O
   O182        1.0     0.301555     0.031474     0.652577    Biso  1.000000 O
   O183        1.0     0.224557     0.037349     0.050406    Biso  1.000000 O
   O184        1.0     0.388238     0.035421     0.049696    Biso  1.000000 O
   O185        1.0     0.566499     0.033286     0.840973    Biso  1.000000 O
   O186        1.0     0.800614     0.035491     0.823649    Biso  1.000000 O
   O187        1.0     0.722974     0.032352     0.426521    Biso  1.000000 O
   O188        1.0     0.890351     0.033629     0.426571    Biso  1.000000 O
   O189        1.0     0.932669     0.534767     0.339851    Biso  1.000000 O
   O190        1.0     0.698147     0.536030     0.326372    Biso  1.000000 O
   O191        1.0     0.776171     0.531425     0.921224    Biso  1.000000 O
   O192        1.0     0.608559     0.532836     0.925609    Biso  1.000000 O
   H1          1.0     0.391784     0.610342     0.482024    Biso  1.000000 H
   H2          1.0     0.590142     0.560248     0.437421    Biso  1.000000 H
   H3          1.0     0.480528     0.600867     0.373665    Biso  1.000000 H
   H4          1.0     0.396412     0.587956     0.651484    Biso  1.000000 H
   H5          1.0     0.502697     0.547862     0.727701    Biso  1.000000 H
   H6          1.0     0.600870     0.533684     0.617299    Biso  1.000000 H
   C1          1.0     0.554224     0.550925     0.587476    Biso  1.000000 C
   C2          1.0     0.548726     0.565646     0.487234    Biso  1.000000 C
   C3          1.0     0.489165     0.587789     0.450451    Biso  1.000000 C
   C4          1.0     0.441135     0.580543     0.608909    Biso  1.000000 C
   C5          1.0     0.499811     0.558587     0.649160    Biso  1.000000 C
   N1          1.0     0.437464     0.594348     0.511718    Biso  1.000000 N
