
#======================================================================
# CRYSTAL DATA
#----------------------------------------------------------------------
data_VESTA_phase_1

_chemical_name_common                  'ï¿½'
_cell_length_a                         20.382000
_cell_length_b                         20.165199
_cell_length_c                         13.574200
_cell_angle_alpha                      90
_cell_angle_beta                       90
_cell_angle_gamma                      90
_cell_volume                           5579.086950
_space_group_name_H-M_alt              'P 1'
_space_group_IT_number                 1

loop_
_space_group_symop_operation_xyz
   'x, y, z'

loop_
   _atom_site_label
   _atom_site_occupancy
   _atom_site_fract_x
   _atom_site_fract_y
   _atom_site_fract_z
   _atom_site_adp_type
   _atom_site_B_iso_or_equiv
   _atom_site_type_symbol
   Si1         1.0     0.426978     0.841902     0.146825    Biso  1.000000 Si
   Si2         1.0     0.312428     0.811223     0.299279    Biso  1.000000 Si
   Si3         1.0     0.280204     0.845969     0.516102    Biso  1.000000 Si
   Si4         1.0     0.123000     0.850661     0.515966    Biso  1.000000 Si
   Si5         1.0     0.070240     0.816418     0.305309    Biso  1.000000 Si
   Si6         1.0     0.187101     0.846281     0.167925    Biso  1.000000 Si
   Si7         1.0     0.309348     0.651350     0.318124    Biso  1.000000 Si
   Si8         1.0     0.266355     0.614864     0.534723    Biso  1.000000 Si
   Si9         1.0     0.113190     0.612877     0.517575    Biso  1.000000 Si
   Si10        1.0     0.070506     0.658363     0.302553    Biso  1.000000 Si
   Si11        1.0     0.190427     0.611258     0.177374    Biso  1.000000 Si
   Si12        1.0     0.077976     0.727837     0.654475    Biso  1.000000 Si
   Si13        1.0     0.187561     0.755428     0.808149    Biso  1.000000 Si
   Si14        1.0     0.218965     0.726530     0.025734    Biso  1.000000 Si
   Si15        1.0     0.373736     0.723453     0.015607    Biso  1.000000 Si
   Si16        1.0     0.426805     0.754564     0.805652    Biso  1.000000 Si
   Si17        1.0     0.309569     0.728131     0.670173    Biso  1.000000 Si
   Si18        1.0     0.076787     0.957427     0.668421    Biso  1.000000 Si
   Si19        1.0     0.189732     0.913719     0.810053    Biso  1.000000 Si
   Si20        1.0     0.231889     0.957939     0.023260    Biso  1.000000 Si
   Si21        1.0     0.385316     0.959547     0.016042    Biso  1.000000 Si
   Si22        1.0     0.432651     0.912534     0.805482    Biso  1.000000 Si
   Si23        1.0     0.312775     0.953290     0.674084    Biso  1.000000 Si
   Si24        1.0     0.575923     0.341028     0.831875    Biso  1.000000 Si
   Si25        1.0     0.691877     0.312322     0.681712    Biso  1.000000 Si
   Si26        1.0     0.718531     0.349931     0.464609    Biso  1.000000 Si
   Si27        1.0     0.876730     0.351575     0.467018    Biso  1.000000 Si
   Si28        1.0     0.926840     0.313793     0.678806    Biso  1.000000 Si
   Si29        1.0     0.814211     0.338557     0.824754    Biso  1.000000 Si
   Si30        1.0     0.576183     0.113249     0.816000    Biso  1.000000 Si
   Si31        1.0     0.692545     0.155176     0.672542    Biso  1.000000 Si
   Si32        1.0     0.730854     0.110749     0.459021    Biso  1.000000 Si
   Si33        1.0     0.884362     0.111477     0.468736    Biso  1.000000 Si
   Si34        1.0     0.930819     0.156067     0.680319    Biso  1.000000 Si
   Si35        1.0     0.812817     0.114450     0.811171    Biso  1.000000 Si
   Si36        1.0     0.924302     0.229076     0.334456    Biso  1.000000 Si
   Si37        1.0     0.807682     0.256619     0.187637    Biso  1.000000 Si
   Si38        1.0     0.779314     0.220210     0.968116    Biso  1.000000 Si
   Si39        1.0     0.620983     0.219345     0.968252    Biso  1.000000 Si
   Si40        1.0     0.572289     0.255907     0.180739    Biso  1.000000 Si
   Si41        1.0     0.683591     0.228724     0.327830    Biso  1.000000 Si
   Si42        1.0     0.922545     0.458386     0.316620    Biso  1.000000 Si
   Si43        1.0     0.807425     0.415195     0.173277    Biso  1.000000 Si
   Si44        1.0     0.769033     0.455895     0.957926    Biso  1.000000 Si
   Si45        1.0     0.615283     0.458071     0.967322    Biso  1.000000 Si
   Si46        1.0     0.567442     0.412514     0.178756    Biso  1.000000 Si
   Si47        1.0     0.685137     0.457821     0.306997    Biso  1.000000 Si
   Si48        1.0     0.573542     0.727188     0.834467    Biso  1.000000 Si
   Si49        1.0     0.689351     0.756025     0.685664    Biso  1.000000 Si
   Si50        1.0     0.720541     0.721747     0.468040    Biso  1.000000 Si
   Si51        1.0     0.878424     0.721377     0.464527    Biso  1.000000 Si
   Si52        1.0     0.930105     0.756468     0.675667    Biso  1.000000 Si
   Si53        1.0     0.816018     0.726550     0.818966    Biso  1.000000 Si
   Si54        1.0     0.577418     0.958016     0.811311    Biso  1.000000 Si
   Si55        1.0     0.690738     0.914791     0.668579    Biso  1.000000 Si
   Si56        1.0     0.732477     0.955594     0.454307    Biso  1.000000 Si
   Si57        1.0     0.886257     0.958811     0.463796    Biso  1.000000 Si
   Si58        1.0     0.932061     0.913665     0.676180    Biso  1.000000 Si
   Si59        1.0     0.812445     0.957511     0.803489    Biso  1.000000 Si
   Si60        1.0     0.923012     0.843137     0.325169    Biso  1.000000 Si
   Si61        1.0     0.809615     0.811859     0.176943    Biso  1.000000 Si
   Si62        1.0     0.780979     0.846610     0.957026    Biso  1.000000 Si
   Si63        1.0     0.623821     0.850091     0.961457    Biso  1.000000 Si
   Si64        1.0     0.687824     0.839116     0.320010    Biso  1.000000 Si
   Si65        1.0     0.924591     0.613433     0.312464    Biso  1.000000 Si
   Si66        1.0     0.811293     0.654205     0.168934    Biso  1.000000 Si
   Si67        1.0     0.769848     0.611135     0.954385    Biso  1.000000 Si
   Si68        1.0     0.616696     0.610885     0.968614    Biso  1.000000 Si
   Si69        1.0     0.689882     0.615329     0.309649    Biso  1.000000 Si
   Si70        1.0     0.423298     0.229580     0.151176    Biso  1.000000 Si
   Si71        1.0     0.307353     0.258151     0.302605    Biso  1.000000 Si
   Si72        1.0     0.280138     0.219829     0.519646    Biso  1.000000 Si
   Si73        1.0     0.122072     0.219322     0.515122    Biso  1.000000 Si
   Si74        1.0     0.072067     0.255740     0.303727    Biso  1.000000 Si
   Si75        1.0     0.185482     0.228960     0.159442    Biso  1.000000 Si
   Si76        1.0     0.423198     0.455776     0.164190    Biso  1.000000 Si
   Si77        1.0     0.306153     0.416105     0.308334    Biso  1.000000 Si
   Si78        1.0     0.266663     0.459309     0.522136    Biso  1.000000 Si
   Si79        1.0     0.113324     0.459754     0.511548    Biso  1.000000 Si
   Si80        1.0     0.067555     0.413418     0.300871    Biso  1.000000 Si
   Si81        1.0     0.185238     0.455268     0.168074    Biso  1.000000 Si
   Si82        1.0     0.074072     0.342231     0.645439    Biso  1.000000 Si
   Si83        1.0     0.190182     0.313826     0.792738    Biso  1.000000 Si
   Si84        1.0     0.218294     0.346759     0.012721    Biso  1.000000 Si
   Si85        1.0     0.376545     0.348572     0.011800    Biso  1.000000 Si
   Si86        1.0     0.428118     0.315351     0.799154    Biso  1.000000 Si
   Si87        1.0     0.314997     0.342198     0.656194    Biso  1.000000 Si
   Si88        1.0     0.076052     0.111936     0.666684    Biso  1.000000 Si
   Si89        1.0     0.190610     0.154612     0.808482    Biso  1.000000 Si
   Si90        1.0     0.230450     0.114721     0.023524    Biso  1.000000 Si
   Si91        1.0     0.383938     0.113617     0.016265    Biso  1.000000 Si
   Si92        1.0     0.431417     0.157141     0.802087    Biso  1.000000 Si
   Si93        1.0     0.312514     0.110096     0.675501    Biso  1.000000 Si
   Si94        1.0     0.576648     0.814989     0.172997    Biso  1.000000 Si
   Si95        1.0     0.571733     0.659377     0.178545    Biso  1.000000 Si
   Al1         1.0     0.423276     0.613788     0.169608    Biso  1.000000 Al
   O1          1.0     0.374361     0.838794     0.236684    Biso  1.000000 O
   O2          1.0     0.317301     0.841028     0.410492    Biso  1.000000 O
   O3          1.0     0.201486     0.847520     0.498109    Biso  1.000000 O
   O4          1.0     0.084787     0.850145     0.411602    Biso  1.000000 O
   O5          1.0     0.116109     0.850118     0.221755    Biso  1.000000 O
   O6          1.0     0.243862     0.835104     0.250053    Biso  1.000000 O
   O7          1.0     0.374861     0.614945     0.279141    Biso  1.000000 O
   O8          1.0     0.306228     0.635152     0.436002    Biso  1.000000 O
   O9          1.0     0.189804     0.635426     0.521707    Biso  1.000000 O
   O10         1.0     0.086184     0.621783     0.406403    Biso  1.000000 O
   O11         1.0     0.116418     0.627751     0.216030    Biso  1.000000 O
   O12         1.0     0.242122     0.624523     0.266591    Biso  1.000000 O
   O13         1.0     0.313979     0.730987     0.302043    Biso  1.000000 O
   O14         1.0     0.084849     0.737243     0.312779    Biso  1.000000 O
   O15         1.0     0.424405     0.915357     0.096577    Biso  1.000000 O
   O16         1.0     0.412599     0.786902     0.062963    Biso  1.000000 O
   O17         1.0     0.383953     0.656984     0.076707    Biso  1.000000 O
   O18         1.0     0.198962     0.916613     0.112715    Biso  1.000000 O
   O19         1.0     0.185168     0.785505     0.089711    Biso  1.000000 O
   O20         1.0     0.207653     0.655792     0.081000    Biso  1.000000 O
   O21         1.0     0.994217     0.829912     0.275424    Biso  1.000000 O
   O22         1.0    -0.006258     0.645549     0.275826    Biso  1.000000 O
   O23         1.0     0.131626     0.719269     0.741857    Biso  1.000000 O
   O24         1.0     0.183754     0.723973     0.918049    Biso  1.000000 O
   O25         1.0     0.295976     0.743650     0.011325    Biso  1.000000 O
   O26         1.0     0.401159     0.715668     0.902663    Biso  1.000000 O
   O27         1.0     0.384673     0.732624     0.709155    Biso  1.000000 O
   O28         1.0     0.259969     0.742638     0.761369    Biso  1.000000 O
   O29         1.0     0.130474     0.953137     0.756240    Biso  1.000000 O
   O30         1.0     0.193651     0.941404     0.921562    Biso  1.000000 O
   O31         1.0     0.308618     0.936823     0.011262    Biso  1.000000 O
   O32         1.0     0.417683     0.951936     0.907272    Biso  1.000000 O
   O33         1.0     0.385953     0.940415     0.717654    Biso  1.000000 O
   O34         1.0     0.259001     0.927251     0.753936    Biso  1.000000 O
   O35         1.0     0.173640     0.834885     0.809815    Biso  1.000000 O
   O36         1.0     0.419776     0.834085     0.822335    Biso  1.000000 O
   O37         1.0     0.071656     0.658646     0.593528    Biso  1.000000 O
   O38         1.0     0.100070     0.787111     0.580640    Biso  1.000000 O
   O39         1.0     0.104021     0.919239     0.571384    Biso  1.000000 O
   O40         1.0     0.297788     0.653567     0.628081    Biso  1.000000 O
   O41         1.0     0.298520     0.781312     0.581974    Biso  1.000000 O
   O42         1.0     0.303921     0.913523     0.570839    Biso  1.000000 O
   O43         1.0     0.502779     0.735138     0.780919    Biso  1.000000 O
   O44         1.0     0.508735     0.925342     0.773928    Biso  1.000000 O
   O45         1.0     0.631945     0.341676     0.746977    Biso  1.000000 O
   O46         1.0     0.694533     0.353677     0.578787    Biso  1.000000 O
   O47         1.0     0.797809     0.342666     0.458574    Biso  1.000000 O
   O48         1.0     0.899578     0.351995     0.581353    Biso  1.000000 O
   O49         1.0     0.886636     0.338548     0.775211    Biso  1.000000 O
   O50         1.0     0.760590     0.321225     0.740154    Biso  1.000000 O
   O51         1.0     0.632293     0.122079     0.732423    Biso  1.000000 O
   O52         1.0     0.695621     0.120003     0.565451    Biso  1.000000 O
   O53         1.0     0.807412     0.133506     0.467358    Biso  1.000000 O
   O54         1.0     0.912018     0.115759     0.580642    Biso  1.000000 O
   O55         1.0     0.887001     0.128602     0.771907    Biso  1.000000 O
   O56         1.0     0.761430     0.143719     0.730297    Biso  1.000000 O
   O57         1.0     0.679996     0.234211     0.658915    Biso  1.000000 O
   O58         1.0     0.916835     0.234497     0.662729    Biso  1.000000 O
   O59         1.0     0.576348     0.412048     0.888370    Biso  1.000000 O
   O60         1.0     0.587316     0.281466     0.910735    Biso  1.000000 O
   O61         1.0     0.598547     0.150169     0.917187    Biso  1.000000 O
   O62         1.0     0.800861     0.411572     0.870557    Biso  1.000000 O
   O63         1.0     0.811999     0.283249     0.911799    Biso  1.000000 O
   O64         1.0     0.801825     0.150977     0.916776    Biso  1.000000 O
   O65         1.0     0.003464     0.331480     0.698408    Biso  1.000000 O
   O66         1.0     0.007782     0.144441     0.706317    Biso  1.000000 O
   O67         1.0     0.868151     0.225316     0.249935    Biso  1.000000 O
   O68         1.0     0.804235     0.219587     0.081567    Biso  1.000000 O
   O69         1.0     0.700002     0.227626     0.962694    Biso  1.000000 O
   O70         1.0     0.596636     0.217696     0.081721    Biso  1.000000 O
   O71         1.0     0.611950     0.227936     0.275800    Biso  1.000000 O
   O72         1.0     0.739047     0.244743     0.245336    Biso  1.000000 O
   O73         1.0     0.866572     0.451381     0.232176    Biso  1.000000 O
   O74         1.0     0.807410     0.442831     0.061024    Biso  1.000000 O
   O75         1.0     0.692095     0.435487     0.971274    Biso  1.000000 O
   O76         1.0     0.583471     0.450426     0.075922    Biso  1.000000 O
   O77         1.0     0.610780     0.445537     0.267157    Biso  1.000000 O
   O78         1.0     0.737041     0.431743     0.224403    Biso  1.000000 O
   O79         1.0     0.819469     0.335674     0.173122    Biso  1.000000 O
   O80         1.0     0.587116     0.334675     0.167316    Biso  1.000000 O
   O81         1.0     0.925555     0.160172     0.396551    Biso  1.000000 O
   O82         1.0     0.911570     0.290518     0.409487    Biso  1.000000 O
   O83         1.0     0.898879     0.421556     0.417526    Biso  1.000000 O
   O84         1.0     0.695123     0.156116     0.376423    Biso  1.000000 O
   O85         1.0     0.685119     0.285505     0.413014    Biso  1.000000 O
   O86         1.0     0.695509     0.417943     0.410218    Biso  1.000000 O
   O87         1.0     0.494900     0.242031     0.199971    Biso  1.000000 O
   O88         1.0     0.490124     0.419119     0.205008    Biso  1.000000 O
   O89         1.0     0.629636     0.723959     0.749036    Biso  1.000000 O
   O90         1.0     0.688188     0.720474     0.577860    Biso  1.000000 O
   O91         1.0     0.799554     0.729634     0.475646    Biso  1.000000 O
   O92         1.0     0.912008     0.719650     0.572638    Biso  1.000000 O
   O93         1.0     0.886812     0.725340     0.764643    Biso  1.000000 O
   O94         1.0     0.759295     0.741734     0.737898    Biso  1.000000 O
   O95         1.0     0.630747     0.953036     0.722538    Biso  1.000000 O
   O96         1.0     0.692289     0.938602     0.554604    Biso  1.000000 O
   O97         1.0     0.809457     0.936565     0.470359    Biso  1.000000 O
   O98         1.0     0.919303     0.950460     0.571615    Biso  1.000000 O
   O99         1.0     0.886407     0.946222     0.761682    Biso  1.000000 O
   O100        1.0     0.760387     0.932718     0.720416    Biso  1.000000 O
   O101        1.0     0.678192     0.835327     0.674665    Biso  1.000000 O
   O102        1.0     0.914663     0.835361     0.664929    Biso  1.000000 O
   O103        1.0     0.573890     0.657883     0.895629    Biso  1.000000 O
   O104        1.0     0.585021     0.789233     0.908741    Biso  1.000000 O
   O105        1.0     0.604502     0.919682     0.908623    Biso  1.000000 O
   O106        1.0     0.805105     0.654102     0.868349    Biso  1.000000 O
   O107        1.0     0.815999     0.783987     0.902954    Biso  1.000000 O
   O108        1.0     0.802322     0.916035     0.905144    Biso  1.000000 O
   O109        1.0     0.006837     0.744679     0.702152    Biso  1.000000 O
   O110        1.0     0.008557     0.923803     0.706597    Biso  1.000000 O
   O111        1.0     0.868506     0.846491     0.238372    Biso  1.000000 O
   O112        1.0     0.804354     0.848803     0.071057    Biso  1.000000 O
   O113        1.0     0.702005     0.836767     0.949562    Biso  1.000000 O
   O114        1.0     0.603309     0.855231     0.076543    Biso  1.000000 O
   O115        1.0     0.615360     0.840279     0.270956    Biso  1.000000 O
   O116        1.0     0.740876     0.819655     0.235780    Biso  1.000000 O
   O117        1.0     0.872862     0.618275     0.222052    Biso  1.000000 O
   O118        1.0     0.805732     0.623781     0.059139    Biso  1.000000 O
   O119        1.0     0.693353     0.633794     0.961706    Biso  1.000000 O
   O120        1.0     0.591966     0.615885     0.081397    Biso  1.000000 O
   O121        1.0     0.616968     0.633628     0.271071    Biso  1.000000 O
   O122        1.0     0.743981     0.640214     0.229672    Biso  1.000000 O
   O123        1.0     0.824877     0.733419     0.162754    Biso  1.000000 O
   O124        1.0     0.590872     0.736676     0.154991    Biso  1.000000 O
   O125        1.0     0.924263     0.913517     0.383337    Biso  1.000000 O
   O126        1.0     0.906696     0.783939     0.402706    Biso  1.000000 O
   O127        1.0     0.896082     0.652553     0.408402    Biso  1.000000 O
   O128        1.0     0.703082     0.912359     0.363943    Biso  1.000000 O
   O129        1.0     0.689732     0.784254     0.408213    Biso  1.000000 O
   O130        1.0     0.701835     0.651941     0.415264    Biso  1.000000 O
   O131        1.0     0.499721     0.830499     0.192366    Biso  1.000000 O
   O132        1.0     0.496423     0.651230     0.207366    Biso  1.000000 O
   O133        1.0     0.368810     0.231598     0.238184    Biso  1.000000 O
   O134        1.0     0.306019     0.217820     0.406469    Biso  1.000000 O
   O135        1.0     0.200939     0.228997     0.522384    Biso  1.000000 O
   O136        1.0     0.098530     0.217032     0.401195    Biso  1.000000 O
   O137        1.0     0.112860     0.230389     0.208326    Biso  1.000000 O
   O138        1.0     0.239115     0.246045     0.244097    Biso  1.000000 O
   O139        1.0     0.369063     0.446938     0.252790    Biso  1.000000 O
   O140        1.0     0.303265     0.451818     0.416079    Biso  1.000000 O
   O141        1.0     0.190258     0.437047     0.513377    Biso  1.000000 O
   O142        1.0     0.086296     0.455016     0.399519    Biso  1.000000 O
   O143        1.0     0.111513     0.440030     0.208965    Biso  1.000000 O
   O144        1.0     0.237985     0.430163     0.250226    Biso  1.000000 O
   O145        1.0     0.315350     0.336902     0.324738    Biso  1.000000 O
   O146        1.0     0.081865     0.335171     0.320215    Biso  1.000000 O
   O147        1.0     0.422220     0.157312     0.098414    Biso  1.000000 O
   O148        1.0     0.409181     0.285393     0.067558    Biso  1.000000 O
   O149        1.0     0.396333     0.416551     0.066804    Biso  1.000000 O
   O150        1.0     0.198662     0.155445     0.114915    Biso  1.000000 O
   O151        1.0     0.188130     0.283587     0.071613    Biso  1.000000 O
   O152        1.0     0.196848     0.415733     0.065263    Biso  1.000000 O
   O153        1.0     0.995429     0.238882     0.282821    Biso  1.000000 O
   O154        1.0     0.990329     0.425266     0.275721    Biso  1.000000 O
   O155        1.0     0.131091     0.346101     0.728608    Biso  1.000000 O
   O156        1.0     0.189099     0.346911     0.901517    Biso  1.000000 O
   O157        1.0     0.297518     0.339494     0.010373    Biso  1.000000 O
   O158        1.0     0.404226     0.351375     0.899732    Biso  1.000000 O
   O159        1.0     0.387515     0.345189     0.705911    Biso  1.000000 O
   O160        1.0     0.260391     0.329880     0.741206    Biso  1.000000 O
   O161        1.0     0.130455     0.117479     0.753488    Biso  1.000000 O
   O162        1.0     0.190591     0.132279     0.923140    Biso  1.000000 O
   O163        1.0     0.307170     0.136249     0.010242    Biso  1.000000 O
   O164        1.0     0.416944     0.123590     0.908500    Biso  1.000000 O
   O165        1.0     0.386264     0.123225     0.717180    Biso  1.000000 O
   O166        1.0     0.260324     0.133872     0.759093    Biso  1.000000 O
   O167        1.0     0.180180     0.234131     0.799270    Biso  1.000000 O
   O168        1.0     0.415511     0.236001     0.807461    Biso  1.000000 O
   O169        1.0     0.071860     0.411546     0.584192    Biso  1.000000 O
   O170        1.0     0.086765     0.281384     0.569555    Biso  1.000000 O
   O171        1.0     0.100825     0.150141     0.567626    Biso  1.000000 O
   O172        1.0     0.303593     0.413353     0.602784    Biso  1.000000 O
   O173        1.0     0.313380     0.282798     0.575511    Biso  1.000000 O
   O174        1.0     0.301035     0.150991     0.573521    Biso  1.000000 O
   O175        1.0     0.505140     0.331529     0.778684    Biso  1.000000 O
   O176        1.0     0.508191     0.145200     0.774235    Biso  1.000000 O
   O177        1.0     0.435969     0.531409     0.138770    Biso  1.000000 O
   O178        1.0     0.193942     0.533675     0.145677    Biso  1.000000 O
   O179        1.0     0.273583     0.535898     0.557060    Biso  1.000000 O
   O180        1.0     0.105481     0.535601     0.549931    Biso  1.000000 O
   O181        1.0     0.064775     0.034520     0.639144    Biso  1.000000 O
   O182        1.0     0.302714     0.031833     0.652101    Biso  1.000000 O
   O183        1.0     0.224888     0.036302     0.048205    Biso  1.000000 O
   O184        1.0     0.390436     0.036665     0.049233    Biso  1.000000 O
   O185        1.0     0.566347     0.035207     0.840384    Biso  1.000000 O
   O186        1.0     0.801247     0.035559     0.827156    Biso  1.000000 O
   O187        1.0     0.724874     0.033553     0.426204    Biso  1.000000 O
   O188        1.0     0.892515     0.035814     0.429647    Biso  1.000000 O
   O189        1.0     0.934251     0.536070     0.342378    Biso  1.000000 O
   O190        1.0     0.696597     0.536073     0.328703    Biso  1.000000 O
   O191        1.0     0.775810     0.533180     0.925882    Biso  1.000000 O
   O192        1.0     0.608903     0.534604     0.930712    Biso  1.000000 O
   H1          1.0     0.425277     0.593212     0.369599    Biso  1.000000 H
   H2          1.0     0.573291     0.652023     0.568346    Biso  1.000000 H
   H3          1.0     0.503571     0.671645     0.415687    Biso  1.000000 H
   H4          1.0     0.409602     0.490943     0.447091    Biso  1.000000 H
   H5          1.0     0.474970     0.462442     0.600374    Biso  1.000000 H
   H6          1.0     0.557246     0.545745     0.661896    Biso  1.000000 H
   C1          1.0     0.528719     0.555768     0.595565    Biso  1.000000 C
   C2          1.0     0.537627     0.615236     0.544193    Biso  1.000000 C
   C3          1.0     0.499985     0.627159     0.460874    Biso  1.000000 C
   C4          1.0     0.446682     0.523644     0.478280    Biso  1.000000 C
   C5          1.0     0.483029     0.509238     0.561983    Biso  1.000000 C
   N1          1.0     0.455794     0.581720     0.430979    Biso  1.000000 N
