data_T2-O2-two\layers
_audit_creation_date              2023-04-09
_audit_creation_method            'Materials Studio'
_symmetry_space_group_name_H-M    'P1'
_symmetry_Int_Tables_number       1
_symmetry_cell_setting            triclinic
loop_
_symmetry_equiv_pos_as_xyz
  x,y,z
_cell_length_a                    61.1460
_cell_length_b                    40.3304
_cell_length_c                    40.7226
_cell_angle_alpha                 90.0000
_cell_angle_beta                  90.0000
_cell_angle_gamma                 90.0000
loop_
_atom_site_label
_atom_site_type_symbol
_atom_site_fract_x
_atom_site_fract_y
_atom_site_fract_z
_atom_site_U_iso_or_equiv
_atom_site_adp_type
_atom_site_occupancy
Si1    Si    0.14065   0.42119   0.04936   0.01267  Uiso   1.00
Si2    Si    0.10168   0.40689   0.09820   0.01267  Uiso   1.00
Si3    Si    0.09322   0.42554   0.17144   0.01267  Uiso   1.00
Si4    Si    0.04058   0.42431   0.17112   0.01267  Uiso   1.00
Si5    Si    0.02431   0.40704   0.09959   0.01267  Uiso   1.00
Si6    Si    0.06098   0.42090   0.04987   0.01267  Uiso   1.00
Si7    Si    0.14115   0.30725   0.05337   0.01267  Uiso   1.00
Si8    Si    0.10174   0.32772   0.10102   0.01267  Uiso   1.00
Si9    Si    0.09012   0.30554   0.17222   0.01267  Uiso   1.00
Si10   Si    0.03896   0.30593   0.17253   0.01267  Uiso   1.00
Si11   Si    0.02160   0.32789   0.10197   0.01267  Uiso   1.00
Si12   Si    0.06038   0.30574   0.05763   0.01267  Uiso   1.00
Si13   Si    0.02510   0.36423   0.21717   0.01267  Uiso   1.00
Si14   Si    0.06414   0.37849   0.26607   0.01267  Uiso   1.00
Si15   Si    0.07186   0.35933   0.00593   0.01267  Uiso   1.00
Si16   Si    0.12411   0.36049   0.00515   0.01267  Uiso   1.00
Si17   Si    0.14007   0.37867   0.26770   0.01267  Uiso   1.00
Si18   Si    0.10434   0.36419   0.21636   0.01267  Uiso   1.00
Si19   Si    0.02508   0.47730   0.22113   0.01267  Uiso   1.00
Si20   Si    0.06517   0.45772   0.26847   0.01267  Uiso   1.00
Si21   Si    0.07681   0.47974   0.00619   0.01267  Uiso   1.00
Si22   Si    0.12784   0.47979   0.00483   0.01267  Uiso   1.00
Si23   Si    0.14458   0.45789   0.26769   0.01267  Uiso   1.00
Si24   Si    0.10582   0.47916   0.22301   0.01267  Uiso   1.00
Si25   Si    0.19185   0.17124   0.27811   0.01267  Uiso   1.00
Si26   Si    0.23082   0.15602   0.22886   0.01267  Uiso   1.00
Si27   Si    0.23940   0.17512   0.15608   0.01267  Uiso   1.00
Si28   Si    0.29210   0.17459   0.15637   0.01267  Uiso   1.00
Si29   Si    0.30880   0.15628   0.22721   0.01267  Uiso   1.00
Si30   Si    0.27167   0.16942   0.27690   0.01267  Uiso   1.00
Si31   Si    0.19169   0.05729   0.27384   0.01267  Uiso   1.00
Si32   Si    0.23087   0.07722   0.22564   0.01267  Uiso   1.00
Si33   Si    0.24292   0.05516   0.15422   0.01267  Uiso   1.00
Si34   Si    0.29397   0.05508   0.15646   0.01267  Uiso   1.00
Si35   Si    0.31062   0.07696   0.22685   0.01267  Uiso   1.00
Si36   Si    0.27139   0.05663   0.27089   0.01267  Uiso   1.00
Si37   Si    0.30760   0.11333   0.11183   0.01267  Uiso   1.00
Si38   Si    0.26860   0.12750   0.06311   0.01267  Uiso   1.00
Si39   Si    0.25982   0.10990   0.32322   0.01267  Uiso   1.00
Si40   Si    0.20714   0.11092   0.32371   0.01267  Uiso   1.00
Si41   Si    0.19055   0.12818   0.06142   0.01267  Uiso   1.00
Si42   Si    0.22754   0.11448   0.11094   0.01267  Uiso   1.00
Si43   Si    0.30734   0.22839   0.10660   0.01267  Uiso   1.00
Si44   Si    0.26864   0.20635   0.05884   0.01267  Uiso   1.00
Si45   Si    0.25642   0.22814   0.32048   0.01267  Uiso   1.00
Si46   Si    0.20533   0.22920   0.32262   0.01267  Uiso   1.00
Si47   Si    0.18853   0.20739   0.05999   0.01267  Uiso   1.00
Si48   Si    0.22799   0.22794   0.10318   0.01267  Uiso   1.00
Si49   Si    0.18980   0.36263   0.27943   0.01267  Uiso   1.00
Si50   Si    0.23952   0.36101   0.15366   0.01267  Uiso   1.00
Si51   Si    0.29165   0.36063   0.15596   0.01267  Uiso   1.00
Si52   Si    0.30804   0.37844   0.22655   0.01267  Uiso   1.00
Si53   Si    0.27193   0.36452   0.27741   0.01267  Uiso   1.00
Si54   Si    0.19298   0.48070   0.27254   0.01267  Uiso   1.00
Si55   Si    0.22927   0.45916   0.22516   0.01267  Uiso   1.00
Si56   Si    0.24295   0.47759   0.15291   0.01267  Uiso   1.00
Si57   Si    0.29402   0.47888   0.15675   0.01267  Uiso   1.00
Si58   Si    0.30995   0.45751   0.22729   0.01267  Uiso   1.00
Si59   Si    0.27023   0.47842   0.26981   0.01267  Uiso   1.00
Si60   Si    0.30847   0.42051   0.11228   0.01267  Uiso   1.00
Si61   Si    0.26991   0.40671   0.06163   0.01267  Uiso   1.00
Si62   Si    0.26076   0.42403   0.32340   0.01267  Uiso   1.00
Si63   Si    0.20832   0.42479   0.32071   0.01267  Uiso   1.00
Si64   Si    0.19006   0.40644   0.05795   0.01267  Uiso   1.00
Si65   Si    0.22776   0.42013   0.10641   0.01267  Uiso   1.00
Si66   Si    0.30653   0.30632   0.10743   0.01267  Uiso   1.00
Si67   Si    0.26872   0.32776   0.05817   0.01267  Uiso   1.00
Si68   Si    0.25718   0.30566   0.32037   0.01267  Uiso   1.00
Si69   Si    0.20620   0.30555   0.32488   0.01267  Uiso   1.00
Si70   Si    0.18970   0.32750   0.06143   0.01267  Uiso   1.00
Si71   Si    0.22888   0.30657   0.10325   0.01267  Uiso   1.00
Si72   Si    0.14157   0.11413   0.04847   0.01267  Uiso   1.00
Si73   Si    0.10257   0.12878   0.09701   0.01267  Uiso   1.00
Si74   Si    0.09323   0.11147   0.17046   0.01267  Uiso   1.00
Si75   Si    0.04062   0.10984   0.17126   0.01267  Uiso   1.00
Si76   Si    0.02350   0.12786   0.10093   0.01267  Uiso   1.00
Si77   Si    0.06082   0.11511   0.05131   0.01267  Uiso   1.00
Si78   Si    0.14013   0.22972   0.05401   0.01267  Uiso   1.00
Si79   Si    0.10228   0.20766   0.10154   0.01267  Uiso   1.00
Si80   Si    0.08992   0.22806   0.17376   0.01267  Uiso   1.00
Si81   Si    0.03891   0.22898   0.17025   0.01267  Uiso   1.00
Si82   Si    0.02252   0.20688   0.10005   0.01267  Uiso   1.00
Si83   Si    0.06171   0.22748   0.05616   0.01267  Uiso   1.00
Si84   Si    0.02466   0.17092   0.21532   0.01267  Uiso   1.00
Si85   Si    0.06368   0.15642   0.26404   0.01267  Uiso   1.00
Si86   Si    0.07301   0.17379   0.00407   0.01267  Uiso   1.00
Si87   Si    0.12555   0.17511   0.00446   0.01267  Uiso   1.00
Si88   Si    0.14244   0.15708   0.26759   0.01267  Uiso   1.00
Si89   Si    0.10534   0.17019   0.21775   0.01267  Uiso   1.00
Si90   Si    0.02604   0.05522   0.22130   0.01267  Uiso   1.00
Si91   Si    0.06412   0.07725   0.26862   0.01267  Uiso   1.00
Si92   Si    0.07682   0.05712   0.00760   0.01267  Uiso   1.00
Si93   Si    0.12769   0.05621   0.00369   0.01267  Uiso   1.00
Si94   Si    0.14348   0.07843   0.26677   0.01267  Uiso   1.00
Si95   Si    0.10465   0.05753   0.22242   0.01267  Uiso   1.00
Al96   Al    0.23030   0.37991   0.22842   0.01267  Uiso   1.00
O97    O     0.12268   0.42143   0.07863   0.01267  Uiso   1.00
O98    O     0.09968   0.42660   0.13282   0.01267  Uiso   1.00
O99    O     0.06688   0.42470   0.17630   0.01267  Uiso   1.00
O100   O     0.03454   0.42384   0.13247   0.01267  Uiso   1.00
O101   O     0.03728   0.42097   0.06767   0.01267  Uiso   1.00
O102   O     0.07969   0.41265   0.07690   0.01267  Uiso   1.00
O103   O     0.12187   0.31232   0.08016   0.01267  Uiso   1.00
O104   O     0.10224   0.31040   0.13702   0.01267  Uiso   1.00
O105   O     0.06462   0.31678   0.16893   0.01267  Uiso   1.00
O106   O     0.02672   0.31212   0.13783   0.01267  Uiso   1.00
O107   O     0.03625   0.30949   0.07401   0.01267  Uiso   1.00
O108   O     0.07854   0.31989   0.08328   0.01267  Uiso   1.00
O109   O     0.10488   0.36745   0.10494   0.01267  Uiso   1.00
O110   O     0.02737   0.36710   0.10219   0.01267  Uiso   1.00
O111   O     0.14101   0.45708   0.03116   0.01267  Uiso   1.00
O112   O     0.13502   0.39291   0.02208   0.01267  Uiso   1.00
O113   O     0.13546   0.32703   0.01951   0.01267  Uiso   1.00
O114   O     0.06476   0.45725   0.03378   0.01267  Uiso   1.00
O115   O     0.06123   0.39288   0.02114   0.01267  Uiso   1.00
O116   O     0.06160   0.32649   0.02336   0.01267  Uiso   1.00
O117   O     0.33218   0.41696   0.09476   0.01267  Uiso   1.00
O118   O     0.32925   0.32216   0.09349   0.01267  Uiso   1.00
O119   O     0.04156   0.36781   0.24822   0.01267  Uiso   1.00
O120   O     0.06659   0.35786   0.30022   0.01267  Uiso   1.00
O121   O     0.09811   0.35982   0.01276   0.01267  Uiso   1.00
O122   O     0.12820   0.36169   0.29918   0.01267  Uiso   1.00
O123   O     0.12795   0.36629   0.23458   0.01267  Uiso   1.00
O124   O     0.08487   0.36995   0.24271   0.01267  Uiso   1.00
O125   O     0.04443   0.47099   0.24763   0.01267  Uiso   1.00
O126   O     0.06490   0.47570   0.30409   0.01267  Uiso   1.00
O127   O     0.10231   0.46804   0.00329   0.01267  Uiso   1.00
O128   O     0.13855   0.47628   0.30192   0.01267  Uiso   1.00
O129   O     0.13028   0.47348   0.23778   0.01267  Uiso   1.00
O130   O     0.08796   0.46659   0.24986   0.01267  Uiso   1.00
O131   O     0.06379   0.41792   0.27381   0.01267  Uiso   1.00
O132   O     0.13901   0.41861   0.27123   0.01267  Uiso   1.00
O133   O     0.02756   0.32739   0.20143   0.01267  Uiso   1.00
O134   O     0.03060   0.39154   0.18889   0.01267  Uiso   1.00
O135   O     0.03025   0.45768   0.18709   0.01267  Uiso   1.00
O136   O     0.10224   0.32757   0.20010   0.01267  Uiso   1.00
O137   O     0.10353   0.39220   0.18774   0.01267  Uiso   1.00
O138   O     0.10311   0.45849   0.18896   0.01267  Uiso   1.00
O139   O     0.16542   0.36661   0.26536   0.01267  Uiso   1.00
O140   O     0.17040   0.46316   0.25994   0.01267  Uiso   1.00
O141   O     0.21026   0.17053   0.24953   0.01267  Uiso   1.00
O142   O     0.23261   0.17668   0.19463   0.01267  Uiso   1.00
O143   O     0.26578   0.17257   0.15199   0.01267  Uiso   1.00
O144   O     0.29869   0.17439   0.19489   0.01267  Uiso   1.00
O145   O     0.29557   0.16848   0.25959   0.01267  Uiso   1.00
O146   O     0.25320   0.16069   0.24965   0.01267  Uiso   1.00
O147   O     0.21098   0.06143   0.24680   0.01267  Uiso   1.00
O148   O     0.23112   0.05981   0.18975   0.01267  Uiso   1.00
O149   O     0.26844   0.06689   0.15693   0.01267  Uiso   1.00
O150   O     0.30397   0.05793   0.19322   0.01267  Uiso   1.00
O151   O     0.29613   0.06251   0.25717   0.01267  Uiso   1.00
O152   O     0.25417   0.07087   0.24380   0.01267  Uiso   1.00
O153   O     0.22708   0.11690   0.22134   0.01267  Uiso   1.00
O154   O     0.30633   0.11645   0.22250   0.01267  Uiso   1.00
O155   O     0.19193   0.20749   0.29579   0.01267  Uiso   1.00
O156   O     0.19618   0.14300   0.30589   0.01267  Uiso   1.00
O157   O     0.19793   0.07705   0.30736   0.01267  Uiso   1.00
O158   O     0.26788   0.20630   0.29185   0.01267  Uiso   1.00
O159   O     0.27099   0.14246   0.30661   0.01267  Uiso   1.00
O160   O     0.26834   0.07627   0.30546   0.01267  Uiso   1.00
O161   O     0.00091   0.16664   0.23256   0.01267  Uiso   1.00
O162   O     0.00301   0.07036   0.23462   0.01267  Uiso   1.00
O163   O     0.28903   0.11223   0.08345   0.01267  Uiso   1.00
O164   O     0.26670   0.10810   0.02831   0.01267  Uiso   1.00
O165   O     0.23344   0.11299   0.31925   0.01267  Uiso   1.00
O166   O     0.20055   0.11042   0.02889   0.01267  Uiso   1.00
O167   O     0.20364   0.11539   0.09363   0.01267  Uiso   1.00
O168   O     0.24607   0.12250   0.08348   0.01267  Uiso   1.00
O169   O     0.28829   0.22361   0.07928   0.01267  Uiso   1.00
O170   O     0.26846   0.22215   0.02219   0.01267  Uiso   1.00
O171   O     0.23075   0.21723   0.32376   0.01267  Uiso   1.00
O172   O     0.19456   0.22536   0.02542   0.01267  Uiso   1.00
O173   O     0.20316   0.22310   0.08947   0.01267  Uiso   1.00
O174   O     0.24511   0.21293   0.07639   0.01267  Uiso   1.00
O175   O     0.27281   0.16672   0.05661   0.01267  Uiso   1.00
O176   O     0.19336   0.16802   0.05708   0.01267  Uiso   1.00
O177   O     0.30786   0.07820   0.13134   0.01267  Uiso   1.00
O178   O     0.30310   0.14304   0.13797   0.01267  Uiso   1.00
O179   O     0.30115   0.20885   0.14034   0.01267  Uiso   1.00
O180   O     0.23093   0.07786   0.12666   0.01267  Uiso   1.00
O181   O     0.22836   0.14239   0.13975   0.01267  Uiso   1.00
O182   O     0.23067   0.20873   0.13813   0.01267  Uiso   1.00
O183   O     0.16499   0.11850   0.06667   0.01267  Uiso   1.00
O184   O     0.16280   0.21387   0.06797   0.01267  Uiso   1.00
O185   O     0.20626   0.35663   0.24647   0.01267  Uiso   1.00
O186   O     0.23171   0.36067   0.19097   0.01267  Uiso   1.00
O187   O     0.26586   0.36732   0.14939   0.01267  Uiso   1.00
O188   O     0.29727   0.36023   0.19479   0.01267  Uiso   1.00
O189   O     0.29576   0.36596   0.25945   0.01267  Uiso   1.00
O190   O     0.25219   0.37173   0.25297   0.01267  Uiso   1.00
O191   O     0.21069   0.48202   0.24302   0.01267  Uiso   1.00
O192   O     0.23008   0.47089   0.18694   0.01267  Uiso   1.00
O193   O     0.26857   0.46688   0.15705   0.01267  Uiso   1.00
O194   O     0.30409   0.47710   0.19354   0.01267  Uiso   1.00
O195   O     0.29511   0.47177   0.25716   0.01267  Uiso   1.00
O196   O     0.25322   0.46707   0.24138   0.01267  Uiso   1.00
O197   O     0.22280   0.42088   0.22890   0.01267  Uiso   1.00
O198   O     0.30541   0.41830   0.22180   0.01267  Uiso   1.00
O199   O     0.19123   0.32962   0.30181   0.01267  Uiso   1.00
O200   O     0.19855   0.39522   0.29746   0.01267  Uiso   1.00
O201   O     0.20268   0.46026   0.30397   0.01267  Uiso   1.00
O202   O     0.26982   0.32731   0.29306   0.01267  Uiso   1.00
O203   O     0.27226   0.39181   0.30712   0.01267  Uiso   1.00
O204   O     0.26622   0.45802   0.30368   0.01267  Uiso   1.00
O205   O     0.00038   0.36897   0.23025   0.01267  Uiso   1.00
O206   O     0.00217   0.46397   0.23671   0.01267  Uiso   1.00
O207   O     0.28964   0.42036   0.08438   0.01267  Uiso   1.00
O208   O     0.27009   0.42736   0.02733   0.01267  Uiso   1.00
O209   O     0.23429   0.41887   0.32441   0.01267  Uiso   1.00
O210   O     0.19657   0.42326   0.02297   0.01267  Uiso   1.00
O211   O     0.20428   0.42216   0.08765   0.01267  Uiso   1.00
O212   O     0.24654   0.41257   0.07933   0.01267  Uiso   1.00
O213   O     0.28786   0.31051   0.07956   0.01267  Uiso   1.00
O214   O     0.26889   0.31028   0.02243   0.01267  Uiso   1.00
O215   O     0.23153   0.31756   0.32286   0.01267  Uiso   1.00
O216   O     0.19710   0.30701   0.02882   0.01267  Uiso   1.00
O217   O     0.20355   0.31355   0.09256   0.01267  Uiso   1.00
O218   O     0.24484   0.32127   0.07478   0.01267  Uiso   1.00
O219   O     0.27315   0.36725   0.05478   0.01267  Uiso   1.00
O220   O     0.19433   0.36664   0.05538   0.01267  Uiso   1.00
O221   O     0.30793   0.45545   0.13206   0.01267  Uiso   1.00
O222   O     0.30558   0.38988   0.13798   0.01267  Uiso   1.00
O223   O     0.29898   0.32484   0.14105   0.01267  Uiso   1.00
O224   O     0.23205   0.45578   0.12373   0.01267  Uiso   1.00
O225   O     0.22698   0.39021   0.13310   0.01267  Uiso   1.00
O226   O     0.23355   0.32472   0.13796   0.01267  Uiso   1.00
O227   O     0.16441   0.41377   0.06541   0.01267  Uiso   1.00
O228   O     0.16389   0.32127   0.06889   0.01267  Uiso   1.00
O229   O     0.12226   0.11226   0.07584   0.01267  Uiso   1.00
O230   O     0.10127   0.11046   0.13248   0.01267  Uiso   1.00
O231   O     0.06685   0.11589   0.17292   0.01267  Uiso   1.00
O232   O     0.03258   0.10870   0.13336   0.01267  Uiso   1.00
O233   O     0.03700   0.11560   0.06883   0.01267  Uiso   1.00
O234   O     0.07937   0.12402   0.07839   0.01267  Uiso   1.00
O235   O     0.12169   0.22726   0.08258   0.01267  Uiso   1.00
O236   O     0.10192   0.22138   0.13887   0.01267  Uiso   1.00
O237   O     0.06437   0.21682   0.17101   0.01267  Uiso   1.00
O238   O     0.02966   0.22703   0.13294   0.01267  Uiso   1.00
O239   O     0.03701   0.21971   0.06899   0.01267  Uiso   1.00
O240   O     0.07882   0.21458   0.08408   0.01267  Uiso   1.00
O241   O     0.10737   0.16816   0.10149   0.01267  Uiso   1.00
O242   O     0.02665   0.16758   0.10627   0.01267  Uiso   1.00
O243   O     0.14216   0.07989   0.02744   0.01267  Uiso   1.00
O244   O     0.13802   0.14523   0.02351   0.01267  Uiso   1.00
O245   O     0.13196   0.21037   0.02119   0.01267  Uiso   1.00
O246   O     0.06482   0.07837   0.03620   0.01267  Uiso   1.00
O247   O     0.06119   0.14248   0.02192   0.01267  Uiso   1.00
O248   O     0.06606   0.20847   0.02156   0.01267  Uiso   1.00
O249   O     0.33129   0.11894   0.09471   0.01267  Uiso   1.00
O250   O     0.33025   0.21399   0.09184   0.01267  Uiso   1.00
O251   O     0.04347   0.17222   0.24347   0.01267  Uiso   1.00
O252   O     0.06519   0.17503   0.29934   0.01267  Uiso   1.00
O253   O     0.09937   0.16889   0.00669   0.01267  Uiso   1.00
O254   O     0.13337   0.17665   0.29977   0.01267  Uiso   1.00
O255   O     0.12913   0.16930   0.23533   0.01267  Uiso   1.00
O256   O     0.08657   0.16195   0.24468   0.01267  Uiso   1.00
O257   O     0.04413   0.05870   0.25021   0.01267  Uiso   1.00
O258   O     0.06489   0.06342   0.30592   0.01267  Uiso   1.00
O259   O     0.10233   0.06871   0.00485   0.01267  Uiso   1.00
O260   O     0.13661   0.05774   0.29948   0.01267  Uiso   1.00
O261   O     0.12916   0.06575   0.23561   0.01267  Uiso   1.00
O262   O     0.08719   0.06938   0.25027   0.01267  Uiso   1.00
O263   O     0.05970   0.11694   0.26893   0.01267  Uiso   1.00
O264   O     0.13895   0.11756   0.27348   0.01267  Uiso   1.00
O265   O     0.02474   0.20544   0.19460   0.01267  Uiso   1.00
O266   O     0.02852   0.14006   0.19032   0.01267  Uiso   1.00
O267   O     0.03421   0.07477   0.18845   0.01267  Uiso   1.00
O268   O     0.10185   0.20711   0.20263   0.01267  Uiso   1.00
O269   O     0.10479   0.14296   0.18836   0.01267  Uiso   1.00
O270   O     0.10038   0.07696   0.18803   0.01267  Uiso   1.00
O271   O     0.16807   0.16553   0.26144   0.01267  Uiso   1.00
O272   O     0.16916   0.07232   0.25840   0.01267  Uiso   1.00
O273   O     0.14371   0.26833   0.04424   0.01267  Uiso   1.00
O274   O     0.06494   0.26690   0.04974   0.01267  Uiso   1.00
O275   O     0.09197   0.26700   0.18341   0.01267  Uiso   1.00
O276   O     0.03708   0.26709   0.18272   0.01267  Uiso   1.00
O277   O     0.02332   0.01637   0.21210   0.01267  Uiso   1.00
O278   O     0.10218   0.01819   0.21513   0.01267  Uiso   1.00
O279   O     0.07531   0.01822   0.01758   0.01267  Uiso   1.00
O280   O     0.12962   0.01819   0.01658   0.01267  Uiso   1.00
O281   O     0.18812   0.01866   0.28382   0.01267  Uiso   1.00
O282   O     0.26709   0.01762   0.27782   0.01267  Uiso   1.00
O283   O     0.24126   0.01665   0.14292   0.01267  Uiso   1.00
O284   O     0.29590   0.01699   0.14397   0.01267  Uiso   1.00
O285   O     0.30991   0.26730   0.11560   0.01267  Uiso   1.00
O286   O     0.23276   0.26711   0.10862   0.01267  Uiso   1.00
O287   O     0.25811   0.26682   0.30992   0.01267  Uiso   1.00
O288   O     0.20354   0.26789   0.31118   0.01267  Uiso   1.00
Si289  Si    0.14065   0.92119   0.04936   0.01267  Uiso   1.00
Si290  Si    0.10168   0.90689   0.09820   0.01267  Uiso   1.00
Si291  Si    0.09322   0.92554   0.17144   0.01267  Uiso   1.00
Si292  Si    0.04058   0.92431   0.17112   0.01267  Uiso   1.00
Si293  Si    0.02431   0.90704   0.09959   0.01267  Uiso   1.00
Si294  Si    0.06098   0.92090   0.04987   0.01267  Uiso   1.00
Si295  Si    0.14115   0.80725   0.05337   0.01267  Uiso   1.00
Si296  Si    0.10174   0.82772   0.10102   0.01267  Uiso   1.00
Si297  Si    0.09012   0.80554   0.17222   0.01267  Uiso   1.00
Si298  Si    0.03896   0.80593   0.17253   0.01267  Uiso   1.00
Si299  Si    0.02160   0.82789   0.10197   0.01267  Uiso   1.00
Si300  Si    0.06038   0.80574   0.05763   0.01267  Uiso   1.00
Si301  Si    0.02510   0.86423   0.21717   0.01267  Uiso   1.00
Si302  Si    0.06414   0.87849   0.26607   0.01267  Uiso   1.00
Si303  Si    0.07186   0.85933   0.00593   0.01267  Uiso   1.00
Si304  Si    0.12411   0.86049   0.00515   0.01267  Uiso   1.00
Si305  Si    0.14007   0.87867   0.26770   0.01267  Uiso   1.00
Si306  Si    0.10434   0.86419   0.21636   0.01267  Uiso   1.00
Si307  Si    0.02508   0.97730   0.22113   0.01267  Uiso   1.00
Si308  Si    0.06517   0.95772   0.26847   0.01267  Uiso   1.00
Si309  Si    0.07681   0.97974   0.00619   0.01267  Uiso   1.00
Si310  Si    0.12784   0.97979   0.00483   0.01267  Uiso   1.00
Si311  Si    0.14458   0.95789   0.26769   0.01267  Uiso   1.00
Si312  Si    0.10582   0.97916   0.22301   0.01267  Uiso   1.00
Si313  Si    0.19185   0.67124   0.27811   0.01267  Uiso   1.00
Si314  Si    0.23082   0.65602   0.22886   0.01267  Uiso   1.00
Si315  Si    0.23940   0.67512   0.15608   0.01267  Uiso   1.00
Si316  Si    0.29210   0.67459   0.15637   0.01267  Uiso   1.00
Si317  Si    0.30880   0.65628   0.22721   0.01267  Uiso   1.00
Si318  Si    0.27167   0.66942   0.27690   0.01267  Uiso   1.00
Si319  Si    0.19169   0.55729   0.27384   0.01267  Uiso   1.00
Si320  Si    0.23087   0.57722   0.22564   0.01267  Uiso   1.00
Si321  Si    0.24292   0.55516   0.15422   0.01267  Uiso   1.00
Si322  Si    0.29397   0.55508   0.15646   0.01267  Uiso   1.00
Si323  Si    0.31062   0.57696   0.22685   0.01267  Uiso   1.00
Si324  Si    0.27139   0.55663   0.27089   0.01267  Uiso   1.00
Si325  Si    0.30760   0.61333   0.11183   0.01267  Uiso   1.00
Si326  Si    0.26860   0.62750   0.06311   0.01267  Uiso   1.00
Si327  Si    0.25982   0.60990   0.32322   0.01267  Uiso   1.00
Si328  Si    0.20714   0.61092   0.32371   0.01267  Uiso   1.00
Si329  Si    0.19055   0.62818   0.06142   0.01267  Uiso   1.00
Si330  Si    0.22754   0.61448   0.11094   0.01267  Uiso   1.00
Si331  Si    0.30734   0.72839   0.10660   0.01267  Uiso   1.00
Si332  Si    0.26864   0.70635   0.05884   0.01267  Uiso   1.00
Si333  Si    0.25642   0.72814   0.32048   0.01267  Uiso   1.00
Si334  Si    0.20533   0.72920   0.32262   0.01267  Uiso   1.00
Si335  Si    0.18853   0.70739   0.05999   0.01267  Uiso   1.00
Si336  Si    0.22799   0.72794   0.10318   0.01267  Uiso   1.00
Si337  Si    0.18980   0.86263   0.27943   0.01267  Uiso   1.00
Si338  Si    0.23952   0.86101   0.15366   0.01267  Uiso   1.00
Si339  Si    0.29165   0.86063   0.15596   0.01267  Uiso   1.00
Si340  Si    0.30804   0.87844   0.22655   0.01267  Uiso   1.00
Si341  Si    0.27193   0.86452   0.27741   0.01267  Uiso   1.00
Si342  Si    0.19298   0.98070   0.27254   0.01267  Uiso   1.00
Si343  Si    0.22927   0.95916   0.22516   0.01267  Uiso   1.00
Si344  Si    0.24295   0.97759   0.15291   0.01267  Uiso   1.00
Si345  Si    0.29402   0.97888   0.15675   0.01267  Uiso   1.00
Si346  Si    0.30995   0.95751   0.22729   0.01267  Uiso   1.00
Si347  Si    0.27023   0.97842   0.26981   0.01267  Uiso   1.00
Si348  Si    0.30847   0.92051   0.11228   0.01267  Uiso   1.00
Si349  Si    0.26991   0.90671   0.06163   0.01267  Uiso   1.00
Si350  Si    0.26076   0.92403   0.32340   0.01267  Uiso   1.00
Si351  Si    0.20832   0.92479   0.32071   0.01267  Uiso   1.00
Si352  Si    0.19006   0.90644   0.05795   0.01267  Uiso   1.00
Si353  Si    0.22776   0.92013   0.10641   0.01267  Uiso   1.00
Si354  Si    0.30653   0.80632   0.10743   0.01267  Uiso   1.00
Si355  Si    0.26872   0.82776   0.05817   0.01267  Uiso   1.00
Si356  Si    0.25718   0.80566   0.32037   0.01267  Uiso   1.00
Si357  Si    0.20620   0.80555   0.32488   0.01267  Uiso   1.00
Si358  Si    0.18970   0.82750   0.06143   0.01267  Uiso   1.00
Si359  Si    0.22888   0.80657   0.10325   0.01267  Uiso   1.00
Si360  Si    0.14157   0.61413   0.04847   0.01267  Uiso   1.00
Si361  Si    0.10257   0.62878   0.09701   0.01267  Uiso   1.00
Si362  Si    0.09323   0.61147   0.17046   0.01267  Uiso   1.00
Si363  Si    0.04062   0.60984   0.17126   0.01267  Uiso   1.00
Si364  Si    0.02350   0.62786   0.10093   0.01267  Uiso   1.00
Si365  Si    0.06082   0.61511   0.05131   0.01267  Uiso   1.00
Si366  Si    0.14013   0.72972   0.05401   0.01267  Uiso   1.00
Si367  Si    0.10228   0.70766   0.10154   0.01267  Uiso   1.00
Si368  Si    0.08992   0.72806   0.17376   0.01267  Uiso   1.00
Si369  Si    0.03891   0.72898   0.17025   0.01267  Uiso   1.00
Si370  Si    0.02252   0.70688   0.10005   0.01267  Uiso   1.00
Si371  Si    0.06171   0.72748   0.05616   0.01267  Uiso   1.00
Si372  Si    0.02466   0.67092   0.21532   0.01267  Uiso   1.00
Si373  Si    0.06368   0.65642   0.26404   0.01267  Uiso   1.00
Si374  Si    0.07301   0.67379   0.00407   0.01267  Uiso   1.00
Si375  Si    0.12555   0.67511   0.00446   0.01267  Uiso   1.00
Si376  Si    0.14244   0.65708   0.26759   0.01267  Uiso   1.00
Si377  Si    0.10534   0.67019   0.21775   0.01267  Uiso   1.00
Si378  Si    0.02604   0.55522   0.22130   0.01267  Uiso   1.00
Si379  Si    0.06412   0.57725   0.26862   0.01267  Uiso   1.00
Si380  Si    0.07682   0.55712   0.00760   0.01267  Uiso   1.00
Si381  Si    0.12769   0.55621   0.00369   0.01267  Uiso   1.00
Si382  Si    0.14348   0.57843   0.26677   0.01267  Uiso   1.00
Si383  Si    0.10465   0.55753   0.22242   0.01267  Uiso   1.00
Al384  Al    0.23030   0.87991   0.22842   0.01267  Uiso   1.00
O385   O     0.12268   0.92143   0.07863   0.01267  Uiso   1.00
O386   O     0.09968   0.92660   0.13282   0.01267  Uiso   1.00
O387   O     0.06688   0.92470   0.17630   0.01267  Uiso   1.00
O388   O     0.03454   0.92384   0.13247   0.01267  Uiso   1.00
O389   O     0.03728   0.92097   0.06767   0.01267  Uiso   1.00
O390   O     0.07969   0.91265   0.07690   0.01267  Uiso   1.00
O391   O     0.12187   0.81232   0.08016   0.01267  Uiso   1.00
O392   O     0.10224   0.81040   0.13702   0.01267  Uiso   1.00
O393   O     0.06462   0.81678   0.16893   0.01267  Uiso   1.00
O394   O     0.02672   0.81212   0.13783   0.01267  Uiso   1.00
O395   O     0.03625   0.80949   0.07401   0.01267  Uiso   1.00
O396   O     0.07854   0.81989   0.08328   0.01267  Uiso   1.00
O397   O     0.10488   0.86745   0.10494   0.01267  Uiso   1.00
O398   O     0.02737   0.86710   0.10219   0.01267  Uiso   1.00
O399   O     0.14101   0.95708   0.03116   0.01267  Uiso   1.00
O400   O     0.13502   0.89291   0.02208   0.01267  Uiso   1.00
O401   O     0.13546   0.82703   0.01951   0.01267  Uiso   1.00
O402   O     0.06476   0.95725   0.03378   0.01267  Uiso   1.00
O403   O     0.06123   0.89288   0.02114   0.01267  Uiso   1.00
O404   O     0.06160   0.82649   0.02336   0.01267  Uiso   1.00
O405   O     0.33218   0.91696   0.09476   0.01267  Uiso   1.00
O406   O     0.32925   0.82216   0.09349   0.01267  Uiso   1.00
O407   O     0.04156   0.86781   0.24822   0.01267  Uiso   1.00
O408   O     0.06659   0.85786   0.30022   0.01267  Uiso   1.00
O409   O     0.09811   0.85982   0.01276   0.01267  Uiso   1.00
O410   O     0.12820   0.86169   0.29918   0.01267  Uiso   1.00
O411   O     0.12795   0.86629   0.23458   0.01267  Uiso   1.00
O412   O     0.08487   0.86995   0.24271   0.01267  Uiso   1.00
O413   O     0.04443   0.97099   0.24763   0.01267  Uiso   1.00
O414   O     0.06490   0.97570   0.30409   0.01267  Uiso   1.00
O415   O     0.10231   0.96804   0.00329   0.01267  Uiso   1.00
O416   O     0.13855   0.97628   0.30192   0.01267  Uiso   1.00
O417   O     0.13028   0.97348   0.23778   0.01267  Uiso   1.00
O418   O     0.08796   0.96659   0.24986   0.01267  Uiso   1.00
O419   O     0.06379   0.91792   0.27381   0.01267  Uiso   1.00
O420   O     0.13901   0.91861   0.27123   0.01267  Uiso   1.00
O421   O     0.02756   0.82739   0.20143   0.01267  Uiso   1.00
O422   O     0.03060   0.89154   0.18889   0.01267  Uiso   1.00
O423   O     0.03025   0.95768   0.18709   0.01267  Uiso   1.00
O424   O     0.10224   0.82757   0.20010   0.01267  Uiso   1.00
O425   O     0.10353   0.89220   0.18774   0.01267  Uiso   1.00
O426   O     0.10311   0.95849   0.18896   0.01267  Uiso   1.00
O427   O     0.16542   0.86661   0.26536   0.01267  Uiso   1.00
O428   O     0.17040   0.96316   0.25994   0.01267  Uiso   1.00
O429   O     0.21026   0.67053   0.24953   0.01267  Uiso   1.00
O430   O     0.23261   0.67668   0.19463   0.01267  Uiso   1.00
O431   O     0.26578   0.67257   0.15199   0.01267  Uiso   1.00
O432   O     0.29869   0.67439   0.19489   0.01267  Uiso   1.00
O433   O     0.29557   0.66848   0.25959   0.01267  Uiso   1.00
O434   O     0.25320   0.66069   0.24965   0.01267  Uiso   1.00
O435   O     0.21098   0.56143   0.24680   0.01267  Uiso   1.00
O436   O     0.23112   0.55981   0.18975   0.01267  Uiso   1.00
O437   O     0.26844   0.56689   0.15693   0.01267  Uiso   1.00
O438   O     0.30397   0.55793   0.19322   0.01267  Uiso   1.00
O439   O     0.29613   0.56251   0.25717   0.01267  Uiso   1.00
O440   O     0.25417   0.57087   0.24380   0.01267  Uiso   1.00
O441   O     0.22708   0.61690   0.22134   0.01267  Uiso   1.00
O442   O     0.30633   0.61645   0.22250   0.01267  Uiso   1.00
O443   O     0.19193   0.70749   0.29579   0.01267  Uiso   1.00
O444   O     0.19618   0.64300   0.30589   0.01267  Uiso   1.00
O445   O     0.19793   0.57705   0.30736   0.01267  Uiso   1.00
O446   O     0.26788   0.70630   0.29185   0.01267  Uiso   1.00
O447   O     0.27099   0.64246   0.30661   0.01267  Uiso   1.00
O448   O     0.26834   0.57627   0.30546   0.01267  Uiso   1.00
O449   O     0.00091   0.66664   0.23256   0.01267  Uiso   1.00
O450   O     0.00301   0.57036   0.23462   0.01267  Uiso   1.00
O451   O     0.28903   0.61223   0.08345   0.01267  Uiso   1.00
O452   O     0.26670   0.60810   0.02831   0.01267  Uiso   1.00
O453   O     0.23344   0.61299   0.31925   0.01267  Uiso   1.00
O454   O     0.20055   0.61042   0.02889   0.01267  Uiso   1.00
O455   O     0.20364   0.61539   0.09363   0.01267  Uiso   1.00
O456   O     0.24607   0.62250   0.08348   0.01267  Uiso   1.00
O457   O     0.28829   0.72361   0.07928   0.01267  Uiso   1.00
O458   O     0.26846   0.72215   0.02219   0.01267  Uiso   1.00
O459   O     0.23075   0.71723   0.32376   0.01267  Uiso   1.00
O460   O     0.19456   0.72536   0.02542   0.01267  Uiso   1.00
O461   O     0.20316   0.72310   0.08947   0.01267  Uiso   1.00
O462   O     0.24511   0.71293   0.07639   0.01267  Uiso   1.00
O463   O     0.27281   0.66672   0.05661   0.01267  Uiso   1.00
O464   O     0.19336   0.66802   0.05708   0.01267  Uiso   1.00
O465   O     0.30786   0.57820   0.13134   0.01267  Uiso   1.00
O466   O     0.30310   0.64304   0.13797   0.01267  Uiso   1.00
O467   O     0.30115   0.70885   0.14034   0.01267  Uiso   1.00
O468   O     0.23093   0.57786   0.12666   0.01267  Uiso   1.00
O469   O     0.22836   0.64239   0.13975   0.01267  Uiso   1.00
O470   O     0.23067   0.70873   0.13813   0.01267  Uiso   1.00
O471   O     0.16499   0.61850   0.06667   0.01267  Uiso   1.00
O472   O     0.16280   0.71387   0.06797   0.01267  Uiso   1.00
O473   O     0.20626   0.85663   0.24647   0.01267  Uiso   1.00
O474   O     0.23171   0.86067   0.19097   0.01267  Uiso   1.00
O475   O     0.26586   0.86732   0.14939   0.01267  Uiso   1.00
O476   O     0.29727   0.86023   0.19479   0.01267  Uiso   1.00
O477   O     0.29576   0.86596   0.25945   0.01267  Uiso   1.00
O478   O     0.25219   0.87173   0.25297   0.01267  Uiso   1.00
O479   O     0.21069   0.98202   0.24302   0.01267  Uiso   1.00
O480   O     0.23008   0.97089   0.18694   0.01267  Uiso   1.00
O481   O     0.26857   0.96688   0.15705   0.01267  Uiso   1.00
O482   O     0.30409   0.97710   0.19354   0.01267  Uiso   1.00
O483   O     0.29511   0.97177   0.25716   0.01267  Uiso   1.00
O484   O     0.25322   0.96707   0.24138   0.01267  Uiso   1.00
O485   O     0.22280   0.92088   0.22890   0.01267  Uiso   1.00
O486   O     0.30541   0.91830   0.22180   0.01267  Uiso   1.00
O487   O     0.19123   0.82962   0.30181   0.01267  Uiso   1.00
O488   O     0.19855   0.89522   0.29746   0.01267  Uiso   1.00
O489   O     0.20268   0.96026   0.30397   0.01267  Uiso   1.00
O490   O     0.26982   0.82731   0.29306   0.01267  Uiso   1.00
O491   O     0.27226   0.89181   0.30712   0.01267  Uiso   1.00
O492   O     0.26622   0.95802   0.30368   0.01267  Uiso   1.00
O493   O     0.00038   0.86897   0.23025   0.01267  Uiso   1.00
O494   O     0.00217   0.96397   0.23671   0.01267  Uiso   1.00
O495   O     0.28964   0.92036   0.08438   0.01267  Uiso   1.00
O496   O     0.27009   0.92736   0.02733   0.01267  Uiso   1.00
O497   O     0.23429   0.91887   0.32441   0.01267  Uiso   1.00
O498   O     0.19657   0.92326   0.02297   0.01267  Uiso   1.00
O499   O     0.20428   0.92216   0.08765   0.01267  Uiso   1.00
O500   O     0.24654   0.91257   0.07933   0.01267  Uiso   1.00
O501   O     0.28786   0.81051   0.07956   0.01267  Uiso   1.00
O502   O     0.26889   0.81028   0.02243   0.01267  Uiso   1.00
O503   O     0.23153   0.81756   0.32286   0.01267  Uiso   1.00
O504   O     0.19710   0.80701   0.02882   0.01267  Uiso   1.00
O505   O     0.20355   0.81355   0.09256   0.01267  Uiso   1.00
O506   O     0.24484   0.82127   0.07478   0.01267  Uiso   1.00
O507   O     0.27315   0.86725   0.05478   0.01267  Uiso   1.00
O508   O     0.19433   0.86664   0.05538   0.01267  Uiso   1.00
O509   O     0.30793   0.95545   0.13206   0.01267  Uiso   1.00
O510   O     0.30558   0.88988   0.13798   0.01267  Uiso   1.00
O511   O     0.29898   0.82484   0.14105   0.01267  Uiso   1.00
O512   O     0.23205   0.95578   0.12373   0.01267  Uiso   1.00
O513   O     0.22698   0.89021   0.13310   0.01267  Uiso   1.00
O514   O     0.23355   0.82472   0.13796   0.01267  Uiso   1.00
O515   O     0.16441   0.91377   0.06541   0.01267  Uiso   1.00
O516   O     0.16389   0.82127   0.06889   0.01267  Uiso   1.00
O517   O     0.12226   0.61226   0.07584   0.01267  Uiso   1.00
O518   O     0.10127   0.61046   0.13248   0.01267  Uiso   1.00
O519   O     0.06685   0.61589   0.17292   0.01267  Uiso   1.00
O520   O     0.03258   0.60870   0.13336   0.01267  Uiso   1.00
O521   O     0.03700   0.61560   0.06883   0.01267  Uiso   1.00
O522   O     0.07937   0.62402   0.07839   0.01267  Uiso   1.00
O523   O     0.12169   0.72726   0.08258   0.01267  Uiso   1.00
O524   O     0.10192   0.72138   0.13887   0.01267  Uiso   1.00
O525   O     0.06437   0.71682   0.17101   0.01267  Uiso   1.00
O526   O     0.02966   0.72703   0.13294   0.01267  Uiso   1.00
O527   O     0.03701   0.71971   0.06899   0.01267  Uiso   1.00
O528   O     0.07882   0.71458   0.08408   0.01267  Uiso   1.00
O529   O     0.10737   0.66816   0.10149   0.01267  Uiso   1.00
O530   O     0.02665   0.66758   0.10627   0.01267  Uiso   1.00
O531   O     0.14216   0.57989   0.02744   0.01267  Uiso   1.00
O532   O     0.13802   0.64523   0.02351   0.01267  Uiso   1.00
O533   O     0.13196   0.71037   0.02119   0.01267  Uiso   1.00
O534   O     0.06482   0.57837   0.03620   0.01267  Uiso   1.00
O535   O     0.06119   0.64248   0.02192   0.01267  Uiso   1.00
O536   O     0.06606   0.70847   0.02156   0.01267  Uiso   1.00
O537   O     0.33129   0.61894   0.09471   0.01267  Uiso   1.00
O538   O     0.33025   0.71399   0.09184   0.01267  Uiso   1.00
O539   O     0.04347   0.67222   0.24347   0.01267  Uiso   1.00
O540   O     0.06519   0.67503   0.29934   0.01267  Uiso   1.00
O541   O     0.09937   0.66889   0.00669   0.01267  Uiso   1.00
O542   O     0.13337   0.67665   0.29977   0.01267  Uiso   1.00
O543   O     0.12913   0.66930   0.23533   0.01267  Uiso   1.00
O544   O     0.08657   0.66195   0.24468   0.01267  Uiso   1.00
O545   O     0.04413   0.55870   0.25021   0.01267  Uiso   1.00
O546   O     0.06489   0.56342   0.30592   0.01267  Uiso   1.00
O547   O     0.10233   0.56871   0.00485   0.01267  Uiso   1.00
O548   O     0.13661   0.55774   0.29948   0.01267  Uiso   1.00
O549   O     0.12916   0.56575   0.23561   0.01267  Uiso   1.00
O550   O     0.08719   0.56938   0.25027   0.01267  Uiso   1.00
O551   O     0.05970   0.61694   0.26893   0.01267  Uiso   1.00
O552   O     0.13895   0.61756   0.27348   0.01267  Uiso   1.00
O553   O     0.02474   0.70544   0.19460   0.01267  Uiso   1.00
O554   O     0.02852   0.64006   0.19032   0.01267  Uiso   1.00
O555   O     0.03421   0.57477   0.18845   0.01267  Uiso   1.00
O556   O     0.10185   0.70711   0.20263   0.01267  Uiso   1.00
O557   O     0.10479   0.64296   0.18836   0.01267  Uiso   1.00
O558   O     0.10038   0.57696   0.18803   0.01267  Uiso   1.00
O559   O     0.16807   0.66553   0.26144   0.01267  Uiso   1.00
O560   O     0.16916   0.57232   0.25840   0.01267  Uiso   1.00
O561   O     0.14371   0.76833   0.04424   0.01267  Uiso   1.00
O562   O     0.06494   0.76690   0.04974   0.01267  Uiso   1.00
O563   O     0.09197   0.76700   0.18341   0.01267  Uiso   1.00
O564   O     0.03708   0.76709   0.18272   0.01267  Uiso   1.00
O565   O     0.02332   0.51637   0.21210   0.01267  Uiso   1.00
O566   O     0.10218   0.51819   0.21513   0.01267  Uiso   1.00
O567   O     0.07531   0.51822   0.01758   0.01267  Uiso   1.00
O568   O     0.12962   0.51819   0.01658   0.01267  Uiso   1.00
O569   O     0.18812   0.51866   0.28382   0.01267  Uiso   1.00
O570   O     0.26709   0.51762   0.27782   0.01267  Uiso   1.00
O571   O     0.24126   0.51665   0.14292   0.01267  Uiso   1.00
O572   O     0.29590   0.51699   0.14397   0.01267  Uiso   1.00
O573   O     0.30991   0.76730   0.11560   0.01267  Uiso   1.00
O574   O     0.23276   0.76711   0.10862   0.01267  Uiso   1.00
O575   O     0.25811   0.76682   0.30992   0.01267  Uiso   1.00
O576   O     0.20354   0.76789   0.31118   0.01267  Uiso   1.00
H577   H     0.20363   0.83470   0.23533   0.01267  Uiso   1.00
H578   H     0.13934   0.77145   0.21660   0.01267  Uiso   1.00
H579   H     0.17058   0.76659   0.26164   0.01267  Uiso   1.00
H580   H     0.15543   0.79076   0.15927   0.01267  Uiso   1.00
H581   H     0.19837   0.80035   0.16274   0.01267  Uiso   1.00
C582   C     0.16527   0.78716   0.18131   0.01267  Uiso   1.00
C583   C     0.18742   0.79220   0.18214   0.01267  Uiso   1.00
C584   C     0.15658   0.77679   0.21228   0.01267  Uiso   1.00
C585   C     0.17227   0.77421   0.23616   0.01267  Uiso   1.00
S586   S     0.19783   0.78357   0.22059   0.01267  Uiso   1.00
Si587  Si    0.47398   0.42119   0.04936   0.01267  Uiso   1.00
Si588  Si    0.43501   0.40689   0.09820   0.01267  Uiso   1.00
Si589  Si    0.42655   0.42554   0.17144   0.01267  Uiso   1.00
Si590  Si    0.37391   0.42431   0.17112   0.01267  Uiso   1.00
Si591  Si    0.35765   0.40704   0.09959   0.01267  Uiso   1.00
Si592  Si    0.39432   0.42090   0.04987   0.01267  Uiso   1.00
Si593  Si    0.47448   0.30725   0.05337   0.01267  Uiso   1.00
Si594  Si    0.43508   0.32772   0.10102   0.01267  Uiso   1.00
Si595  Si    0.42345   0.30554   0.17222   0.01267  Uiso   1.00
Si596  Si    0.37229   0.30593   0.17253   0.01267  Uiso   1.00
Si597  Si    0.35493   0.32789   0.10197   0.01267  Uiso   1.00
Si598  Si    0.39371   0.30574   0.05763   0.01267  Uiso   1.00
Si599  Si    0.35843   0.36423   0.21717   0.01267  Uiso   1.00
Si600  Si    0.39747   0.37849   0.26607   0.01267  Uiso   1.00
Si601  Si    0.40519   0.35933   0.00593   0.01267  Uiso   1.00
Si602  Si    0.45744   0.36049   0.00515   0.01267  Uiso   1.00
Si603  Si    0.47340   0.37867   0.26770   0.01267  Uiso   1.00
Si604  Si    0.43768   0.36419   0.21636   0.01267  Uiso   1.00
Si605  Si    0.35841   0.47730   0.22113   0.01267  Uiso   1.00
Si606  Si    0.39850   0.45772   0.26847   0.01267  Uiso   1.00
Si607  Si    0.41014   0.47974   0.00619   0.01267  Uiso   1.00
Si608  Si    0.46117   0.47979   0.00483   0.01267  Uiso   1.00
Si609  Si    0.47791   0.45789   0.26769   0.01267  Uiso   1.00
Si610  Si    0.43915   0.47916   0.22301   0.01267  Uiso   1.00
Si611  Si    0.52519   0.17124   0.27811   0.01267  Uiso   1.00
Si612  Si    0.56416   0.15602   0.22886   0.01267  Uiso   1.00
Si613  Si    0.57273   0.17512   0.15608   0.01267  Uiso   1.00
Si614  Si    0.62544   0.17459   0.15637   0.01267  Uiso   1.00
Si615  Si    0.64213   0.15628   0.22721   0.01267  Uiso   1.00
Si616  Si    0.60501   0.16942   0.27690   0.01267  Uiso   1.00
Si617  Si    0.52503   0.05729   0.27384   0.01267  Uiso   1.00
Si618  Si    0.56420   0.07722   0.22564   0.01267  Uiso   1.00
Si619  Si    0.57626   0.05516   0.15422   0.01267  Uiso   1.00
Si620  Si    0.62731   0.05508   0.15646   0.01267  Uiso   1.00
Si621  Si    0.64396   0.07696   0.22685   0.01267  Uiso   1.00
Si622  Si    0.60472   0.05663   0.27089   0.01267  Uiso   1.00
Si623  Si    0.64093   0.11333   0.11183   0.01267  Uiso   1.00
Si624  Si    0.60194   0.12750   0.06311   0.01267  Uiso   1.00
Si625  Si    0.59316   0.10990   0.32322   0.01267  Uiso   1.00
Si626  Si    0.54047   0.11092   0.32371   0.01267  Uiso   1.00
Si627  Si    0.52388   0.12818   0.06142   0.01267  Uiso   1.00
Si628  Si    0.56088   0.11448   0.11094   0.01267  Uiso   1.00
Si629  Si    0.64068   0.22839   0.10660   0.01267  Uiso   1.00
Si630  Si    0.60197   0.20635   0.05884   0.01267  Uiso   1.00
Si631  Si    0.58975   0.22814   0.32048   0.01267  Uiso   1.00
Si632  Si    0.53867   0.22920   0.32262   0.01267  Uiso   1.00
Si633  Si    0.52186   0.20739   0.05999   0.01267  Uiso   1.00
Si634  Si    0.56132   0.22794   0.10318   0.01267  Uiso   1.00
Si635  Si    0.52314   0.36263   0.27943   0.01267  Uiso   1.00
Si636  Si    0.57286   0.36101   0.15366   0.01267  Uiso   1.00
Si637  Si    0.62499   0.36063   0.15596   0.01267  Uiso   1.00
Si638  Si    0.64137   0.37844   0.22655   0.01267  Uiso   1.00
Si639  Si    0.60527   0.36452   0.27741   0.01267  Uiso   1.00
Si640  Si    0.52631   0.48070   0.27254   0.01267  Uiso   1.00
Si641  Si    0.56260   0.45916   0.22516   0.01267  Uiso   1.00
Si642  Si    0.57629   0.47759   0.15291   0.01267  Uiso   1.00
Si643  Si    0.62736   0.47888   0.15675   0.01267  Uiso   1.00
Si644  Si    0.64328   0.45751   0.22729   0.01267  Uiso   1.00
Si645  Si    0.60356   0.47842   0.26981   0.01267  Uiso   1.00
Si646  Si    0.64180   0.42051   0.11228   0.01267  Uiso   1.00
Si647  Si    0.60324   0.40671   0.06163   0.01267  Uiso   1.00
Si648  Si    0.59409   0.42403   0.32340   0.01267  Uiso   1.00
Si649  Si    0.54166   0.42479   0.32071   0.01267  Uiso   1.00
Si650  Si    0.52339   0.40644   0.05795   0.01267  Uiso   1.00
Si651  Si    0.56109   0.42013   0.10641   0.01267  Uiso   1.00
Si652  Si    0.63986   0.30632   0.10743   0.01267  Uiso   1.00
Si653  Si    0.60205   0.32776   0.05817   0.01267  Uiso   1.00
Si654  Si    0.59051   0.30566   0.32037   0.01267  Uiso   1.00
Si655  Si    0.53953   0.30555   0.32488   0.01267  Uiso   1.00
Si656  Si    0.52303   0.32750   0.06143   0.01267  Uiso   1.00
Si657  Si    0.56221   0.30657   0.10325   0.01267  Uiso   1.00
Si658  Si    0.47491   0.11413   0.04847   0.01267  Uiso   1.00
Si659  Si    0.43590   0.12878   0.09701   0.01267  Uiso   1.00
Si660  Si    0.42656   0.11147   0.17046   0.01267  Uiso   1.00
Si661  Si    0.37395   0.10984   0.17126   0.01267  Uiso   1.00
Si662  Si    0.35683   0.12786   0.10093   0.01267  Uiso   1.00
Si663  Si    0.39416   0.11511   0.05131   0.01267  Uiso   1.00
Si664  Si    0.47347   0.22972   0.05401   0.01267  Uiso   1.00
Si665  Si    0.43562   0.20766   0.10154   0.01267  Uiso   1.00
Si666  Si    0.42325   0.22806   0.17376   0.01267  Uiso   1.00
Si667  Si    0.37224   0.22898   0.17025   0.01267  Uiso   1.00
Si668  Si    0.35585   0.20688   0.10005   0.01267  Uiso   1.00
Si669  Si    0.39504   0.22748   0.05616   0.01267  Uiso   1.00
Si670  Si    0.35800   0.17092   0.21532   0.01267  Uiso   1.00
Si671  Si    0.39701   0.15642   0.26404   0.01267  Uiso   1.00
Si672  Si    0.40634   0.17379   0.00407   0.01267  Uiso   1.00
Si673  Si    0.45889   0.17511   0.00446   0.01267  Uiso   1.00
Si674  Si    0.47577   0.15708   0.26759   0.01267  Uiso   1.00
Si675  Si    0.43867   0.17019   0.21775   0.01267  Uiso   1.00
Si676  Si    0.35937   0.05522   0.22130   0.01267  Uiso   1.00
Si677  Si    0.39745   0.07725   0.26862   0.01267  Uiso   1.00
Si678  Si    0.41015   0.05712   0.00760   0.01267  Uiso   1.00
Si679  Si    0.46102   0.05621   0.00369   0.01267  Uiso   1.00
Si680  Si    0.47682   0.07843   0.26677   0.01267  Uiso   1.00
Si681  Si    0.43798   0.05753   0.22242   0.01267  Uiso   1.00
Al682  Al    0.56363   0.37991   0.22842   0.01267  Uiso   1.00
O683   O     0.45602   0.42143   0.07863   0.01267  Uiso   1.00
O684   O     0.43302   0.42660   0.13282   0.01267  Uiso   1.00
O685   O     0.40021   0.42470   0.17630   0.01267  Uiso   1.00
O686   O     0.36787   0.42384   0.13247   0.01267  Uiso   1.00
O687   O     0.37062   0.42097   0.06767   0.01267  Uiso   1.00
O688   O     0.41302   0.41265   0.07690   0.01267  Uiso   1.00
O689   O     0.45520   0.31232   0.08016   0.01267  Uiso   1.00
O690   O     0.43557   0.31040   0.13702   0.01267  Uiso   1.00
O691   O     0.39795   0.31678   0.16893   0.01267  Uiso   1.00
O692   O     0.36005   0.31212   0.13783   0.01267  Uiso   1.00
O693   O     0.36958   0.30949   0.07401   0.01267  Uiso   1.00
O694   O     0.41187   0.31989   0.08328   0.01267  Uiso   1.00
O695   O     0.43822   0.36745   0.10494   0.01267  Uiso   1.00
O696   O     0.36071   0.36710   0.10219   0.01267  Uiso   1.00
O697   O     0.47434   0.45708   0.03116   0.01267  Uiso   1.00
O698   O     0.46836   0.39291   0.02208   0.01267  Uiso   1.00
O699   O     0.46879   0.32703   0.01951   0.01267  Uiso   1.00
O700   O     0.39810   0.45725   0.03378   0.01267  Uiso   1.00
O701   O     0.39456   0.39288   0.02114   0.01267  Uiso   1.00
O702   O     0.39493   0.32649   0.02336   0.01267  Uiso   1.00
O703   O     0.66552   0.41696   0.09476   0.01267  Uiso   1.00
O704   O     0.66258   0.32216   0.09349   0.01267  Uiso   1.00
O705   O     0.37490   0.36781   0.24822   0.01267  Uiso   1.00
O706   O     0.39992   0.35786   0.30022   0.01267  Uiso   1.00
O707   O     0.43144   0.35982   0.01276   0.01267  Uiso   1.00
O708   O     0.46153   0.36169   0.29918   0.01267  Uiso   1.00
O709   O     0.46129   0.36629   0.23458   0.01267  Uiso   1.00
O710   O     0.41820   0.36995   0.24271   0.01267  Uiso   1.00
O711   O     0.37777   0.47099   0.24763   0.01267  Uiso   1.00
O712   O     0.39823   0.47570   0.30409   0.01267  Uiso   1.00
O713   O     0.43565   0.46804   0.00329   0.01267  Uiso   1.00
O714   O     0.47188   0.47628   0.30192   0.01267  Uiso   1.00
O715   O     0.46362   0.47348   0.23778   0.01267  Uiso   1.00
O716   O     0.42129   0.46659   0.24986   0.01267  Uiso   1.00
O717   O     0.39712   0.41792   0.27381   0.01267  Uiso   1.00
O718   O     0.47235   0.41861   0.27123   0.01267  Uiso   1.00
O719   O     0.36089   0.32739   0.20143   0.01267  Uiso   1.00
O720   O     0.36393   0.39154   0.18889   0.01267  Uiso   1.00
O721   O     0.36359   0.45768   0.18709   0.01267  Uiso   1.00
O722   O     0.43558   0.32757   0.20010   0.01267  Uiso   1.00
O723   O     0.43686   0.39220   0.18774   0.01267  Uiso   1.00
O724   O     0.43645   0.45849   0.18896   0.01267  Uiso   1.00
O725   O     0.49875   0.36661   0.26536   0.01267  Uiso   1.00
O726   O     0.50374   0.46316   0.25994   0.01267  Uiso   1.00
O727   O     0.54360   0.17053   0.24953   0.01267  Uiso   1.00
O728   O     0.56594   0.17668   0.19463   0.01267  Uiso   1.00
O729   O     0.59912   0.17257   0.15199   0.01267  Uiso   1.00
O730   O     0.63202   0.17439   0.19489   0.01267  Uiso   1.00
O731   O     0.62891   0.16848   0.25959   0.01267  Uiso   1.00
O732   O     0.58654   0.16069   0.24965   0.01267  Uiso   1.00
O733   O     0.54431   0.06143   0.24680   0.01267  Uiso   1.00
O734   O     0.56445   0.05981   0.18975   0.01267  Uiso   1.00
O735   O     0.60178   0.06689   0.15693   0.01267  Uiso   1.00
O736   O     0.63730   0.05793   0.19322   0.01267  Uiso   1.00
O737   O     0.62946   0.06251   0.25717   0.01267  Uiso   1.00
O738   O     0.58751   0.07087   0.24380   0.01267  Uiso   1.00
O739   O     0.56041   0.11690   0.22134   0.01267  Uiso   1.00
O740   O     0.63966   0.11645   0.22250   0.01267  Uiso   1.00
O741   O     0.52527   0.20749   0.29579   0.01267  Uiso   1.00
O742   O     0.52951   0.14300   0.30589   0.01267  Uiso   1.00
O743   O     0.53126   0.07705   0.30736   0.01267  Uiso   1.00
O744   O     0.60122   0.20630   0.29185   0.01267  Uiso   1.00
O745   O     0.60432   0.14246   0.30661   0.01267  Uiso   1.00
O746   O     0.60168   0.07627   0.30546   0.01267  Uiso   1.00
O747   O     0.33424   0.16664   0.23256   0.01267  Uiso   1.00
O748   O     0.33634   0.07036   0.23462   0.01267  Uiso   1.00
O749   O     0.62236   0.11223   0.08345   0.01267  Uiso   1.00
O750   O     0.60004   0.10810   0.02831   0.01267  Uiso   1.00
O751   O     0.56677   0.11299   0.31925   0.01267  Uiso   1.00
O752   O     0.53389   0.11042   0.02889   0.01267  Uiso   1.00
O753   O     0.53697   0.11539   0.09363   0.01267  Uiso   1.00
O754   O     0.57940   0.12250   0.08348   0.01267  Uiso   1.00
O755   O     0.62162   0.22361   0.07928   0.01267  Uiso   1.00
O756   O     0.60180   0.22215   0.02219   0.01267  Uiso   1.00
O757   O     0.56408   0.21723   0.32376   0.01267  Uiso   1.00
O758   O     0.52789   0.22536   0.02542   0.01267  Uiso   1.00
O759   O     0.53650   0.22310   0.08947   0.01267  Uiso   1.00
O760   O     0.57844   0.21293   0.07639   0.01267  Uiso   1.00
O761   O     0.60614   0.16672   0.05661   0.01267  Uiso   1.00
O762   O     0.52669   0.16802   0.05708   0.01267  Uiso   1.00
O763   O     0.64119   0.07820   0.13134   0.01267  Uiso   1.00
O764   O     0.63644   0.14304   0.13797   0.01267  Uiso   1.00
O765   O     0.63448   0.20885   0.14034   0.01267  Uiso   1.00
O766   O     0.56426   0.07786   0.12666   0.01267  Uiso   1.00
O767   O     0.56170   0.14239   0.13975   0.01267  Uiso   1.00
O768   O     0.56401   0.20873   0.13813   0.01267  Uiso   1.00
O769   O     0.49832   0.11850   0.06667   0.01267  Uiso   1.00
O770   O     0.49614   0.21387   0.06797   0.01267  Uiso   1.00
O771   O     0.53960   0.35663   0.24647   0.01267  Uiso   1.00
O772   O     0.56504   0.36067   0.19097   0.01267  Uiso   1.00
O773   O     0.59919   0.36732   0.14939   0.01267  Uiso   1.00
O774   O     0.63060   0.36023   0.19479   0.01267  Uiso   1.00
O775   O     0.62910   0.36596   0.25945   0.01267  Uiso   1.00
O776   O     0.58552   0.37173   0.25297   0.01267  Uiso   1.00
O777   O     0.54403   0.48202   0.24302   0.01267  Uiso   1.00
O778   O     0.56341   0.47089   0.18694   0.01267  Uiso   1.00
O779   O     0.60191   0.46688   0.15705   0.01267  Uiso   1.00
O780   O     0.63743   0.47710   0.19354   0.01267  Uiso   1.00
O781   O     0.62844   0.47177   0.25716   0.01267  Uiso   1.00
O782   O     0.58655   0.46707   0.24138   0.01267  Uiso   1.00
O783   O     0.55613   0.42088   0.22890   0.01267  Uiso   1.00
O784   O     0.63874   0.41830   0.22180   0.01267  Uiso   1.00
O785   O     0.52456   0.32962   0.30181   0.01267  Uiso   1.00
O786   O     0.53188   0.39522   0.29746   0.01267  Uiso   1.00
O787   O     0.53601   0.46026   0.30397   0.01267  Uiso   1.00
O788   O     0.60315   0.32731   0.29306   0.01267  Uiso   1.00
O789   O     0.60559   0.39181   0.30712   0.01267  Uiso   1.00
O790   O     0.59955   0.45802   0.30368   0.01267  Uiso   1.00
O791   O     0.33371   0.36897   0.23025   0.01267  Uiso   1.00
O792   O     0.33550   0.46397   0.23671   0.01267  Uiso   1.00
O793   O     0.62298   0.42036   0.08438   0.01267  Uiso   1.00
O794   O     0.60342   0.42736   0.02733   0.01267  Uiso   1.00
O795   O     0.56762   0.41887   0.32441   0.01267  Uiso   1.00
O796   O     0.52991   0.42326   0.02297   0.01267  Uiso   1.00
O797   O     0.53762   0.42216   0.08765   0.01267  Uiso   1.00
O798   O     0.57987   0.41257   0.07933   0.01267  Uiso   1.00
O799   O     0.62120   0.31051   0.07956   0.01267  Uiso   1.00
O800   O     0.60223   0.31028   0.02243   0.01267  Uiso   1.00
O801   O     0.56486   0.31756   0.32286   0.01267  Uiso   1.00
O802   O     0.53043   0.30701   0.02882   0.01267  Uiso   1.00
O803   O     0.53689   0.31355   0.09256   0.01267  Uiso   1.00
O804   O     0.57817   0.32127   0.07478   0.01267  Uiso   1.00
O805   O     0.60648   0.36725   0.05478   0.01267  Uiso   1.00
O806   O     0.52766   0.36664   0.05538   0.01267  Uiso   1.00
O807   O     0.64126   0.45545   0.13206   0.01267  Uiso   1.00
O808   O     0.63892   0.38988   0.13798   0.01267  Uiso   1.00
O809   O     0.63232   0.32484   0.14105   0.01267  Uiso   1.00
O810   O     0.56538   0.45578   0.12373   0.01267  Uiso   1.00
O811   O     0.56032   0.39021   0.13310   0.01267  Uiso   1.00
O812   O     0.56689   0.32472   0.13796   0.01267  Uiso   1.00
O813   O     0.49774   0.41377   0.06541   0.01267  Uiso   1.00
O814   O     0.49722   0.32127   0.06889   0.01267  Uiso   1.00
O815   O     0.45559   0.11226   0.07584   0.01267  Uiso   1.00
O816   O     0.43460   0.11046   0.13248   0.01267  Uiso   1.00
O817   O     0.40018   0.11589   0.17292   0.01267  Uiso   1.00
O818   O     0.36591   0.10870   0.13336   0.01267  Uiso   1.00
O819   O     0.37033   0.11560   0.06883   0.01267  Uiso   1.00
O820   O     0.41271   0.12402   0.07839   0.01267  Uiso   1.00
O821   O     0.45502   0.22726   0.08258   0.01267  Uiso   1.00
O822   O     0.43525   0.22138   0.13887   0.01267  Uiso   1.00
O823   O     0.39771   0.21682   0.17101   0.01267  Uiso   1.00
O824   O     0.36299   0.22703   0.13294   0.01267  Uiso   1.00
O825   O     0.37035   0.21971   0.06899   0.01267  Uiso   1.00
O826   O     0.41215   0.21458   0.08408   0.01267  Uiso   1.00
O827   O     0.44070   0.16816   0.10149   0.01267  Uiso   1.00
O828   O     0.35999   0.16758   0.10627   0.01267  Uiso   1.00
O829   O     0.47549   0.07989   0.02744   0.01267  Uiso   1.00
O830   O     0.47135   0.14523   0.02351   0.01267  Uiso   1.00
O831   O     0.46530   0.21037   0.02119   0.01267  Uiso   1.00
O832   O     0.39815   0.07837   0.03620   0.01267  Uiso   1.00
O833   O     0.39453   0.14248   0.02192   0.01267  Uiso   1.00
O834   O     0.39939   0.20847   0.02156   0.01267  Uiso   1.00
O835   O     0.66462   0.11894   0.09471   0.01267  Uiso   1.00
O836   O     0.66359   0.21399   0.09184   0.01267  Uiso   1.00
O837   O     0.37681   0.17222   0.24347   0.01267  Uiso   1.00
O838   O     0.39852   0.17503   0.29934   0.01267  Uiso   1.00
O839   O     0.43271   0.16889   0.00669   0.01267  Uiso   1.00
O840   O     0.46670   0.17665   0.29977   0.01267  Uiso   1.00
O841   O     0.46246   0.16930   0.23533   0.01267  Uiso   1.00
O842   O     0.41990   0.16195   0.24468   0.01267  Uiso   1.00
O843   O     0.37747   0.05870   0.25021   0.01267  Uiso   1.00
O844   O     0.39823   0.06342   0.30592   0.01267  Uiso   1.00
O845   O     0.43566   0.06871   0.00485   0.01267  Uiso   1.00
O846   O     0.46995   0.05774   0.29948   0.01267  Uiso   1.00
O847   O     0.46250   0.06575   0.23561   0.01267  Uiso   1.00
O848   O     0.42052   0.06938   0.25027   0.01267  Uiso   1.00
O849   O     0.39303   0.11694   0.26893   0.01267  Uiso   1.00
O850   O     0.47228   0.11756   0.27348   0.01267  Uiso   1.00
O851   O     0.35807   0.20544   0.19460   0.01267  Uiso   1.00
O852   O     0.36186   0.14006   0.19032   0.01267  Uiso   1.00
O853   O     0.36755   0.07477   0.18845   0.01267  Uiso   1.00
O854   O     0.43518   0.20711   0.20263   0.01267  Uiso   1.00
O855   O     0.43813   0.14296   0.18836   0.01267  Uiso   1.00
O856   O     0.43371   0.07696   0.18803   0.01267  Uiso   1.00
O857   O     0.50141   0.16553   0.26144   0.01267  Uiso   1.00
O858   O     0.50249   0.07232   0.25840   0.01267  Uiso   1.00
O859   O     0.47704   0.26833   0.04424   0.01267  Uiso   1.00
O860   O     0.39827   0.26690   0.04974   0.01267  Uiso   1.00
O861   O     0.42530   0.26700   0.18341   0.01267  Uiso   1.00
O862   O     0.37041   0.26709   0.18272   0.01267  Uiso   1.00
O863   O     0.35666   0.01637   0.21210   0.01267  Uiso   1.00
O864   O     0.43552   0.01819   0.21513   0.01267  Uiso   1.00
O865   O     0.40865   0.01822   0.01758   0.01267  Uiso   1.00
O866   O     0.46296   0.01819   0.01658   0.01267  Uiso   1.00
O867   O     0.52145   0.01866   0.28382   0.01267  Uiso   1.00
O868   O     0.60043   0.01762   0.27782   0.01267  Uiso   1.00
O869   O     0.57460   0.01665   0.14292   0.01267  Uiso   1.00
O870   O     0.62924   0.01699   0.14397   0.01267  Uiso   1.00
O871   O     0.64324   0.26730   0.11560   0.01267  Uiso   1.00
O872   O     0.56609   0.26711   0.10862   0.01267  Uiso   1.00
O873   O     0.59144   0.26682   0.30992   0.01267  Uiso   1.00
O874   O     0.53687   0.26789   0.31118   0.01267  Uiso   1.00
Si875  Si    0.47398   0.92119   0.04936   0.01267  Uiso   1.00
Si876  Si    0.43501   0.90689   0.09820   0.01267  Uiso   1.00
Si877  Si    0.42655   0.92554   0.17144   0.01267  Uiso   1.00
Si878  Si    0.37391   0.92431   0.17112   0.01267  Uiso   1.00
Si879  Si    0.35765   0.90704   0.09959   0.01267  Uiso   1.00
Si880  Si    0.39432   0.92090   0.04987   0.01267  Uiso   1.00
Si881  Si    0.47448   0.80725   0.05337   0.01267  Uiso   1.00
Si882  Si    0.43508   0.82772   0.10102   0.01267  Uiso   1.00
Si883  Si    0.42345   0.80554   0.17222   0.01267  Uiso   1.00
Si884  Si    0.37229   0.80593   0.17253   0.01267  Uiso   1.00
Si885  Si    0.35493   0.82789   0.10197   0.01267  Uiso   1.00
Si886  Si    0.39371   0.80574   0.05763   0.01267  Uiso   1.00
Si887  Si    0.35843   0.86423   0.21717   0.01267  Uiso   1.00
Si888  Si    0.39747   0.87849   0.26607   0.01267  Uiso   1.00
Si889  Si    0.40519   0.85933   0.00593   0.01267  Uiso   1.00
Si890  Si    0.45744   0.86049   0.00515   0.01267  Uiso   1.00
Si891  Si    0.47340   0.87867   0.26770   0.01267  Uiso   1.00
Si892  Si    0.43768   0.86419   0.21636   0.01267  Uiso   1.00
Si893  Si    0.35841   0.97730   0.22113   0.01267  Uiso   1.00
Si894  Si    0.39850   0.95772   0.26847   0.01267  Uiso   1.00
Si895  Si    0.41014   0.97974   0.00619   0.01267  Uiso   1.00
Si896  Si    0.46117   0.97979   0.00483   0.01267  Uiso   1.00
Si897  Si    0.47791   0.95789   0.26769   0.01267  Uiso   1.00
Si898  Si    0.43915   0.97916   0.22301   0.01267  Uiso   1.00
Si899  Si    0.52519   0.67124   0.27811   0.01267  Uiso   1.00
Si900  Si    0.56416   0.65602   0.22886   0.01267  Uiso   1.00
Si901  Si    0.57273   0.67512   0.15608   0.01267  Uiso   1.00
Si902  Si    0.62544   0.67459   0.15637   0.01267  Uiso   1.00
Si903  Si    0.64213   0.65628   0.22721   0.01267  Uiso   1.00
Si904  Si    0.60501   0.66942   0.27690   0.01267  Uiso   1.00
Si905  Si    0.52503   0.55729   0.27384   0.01267  Uiso   1.00
Si906  Si    0.56420   0.57722   0.22564   0.01267  Uiso   1.00
Si907  Si    0.57626   0.55516   0.15422   0.01267  Uiso   1.00
Si908  Si    0.62731   0.55508   0.15646   0.01267  Uiso   1.00
Si909  Si    0.64396   0.57696   0.22685   0.01267  Uiso   1.00
Si910  Si    0.60472   0.55663   0.27089   0.01267  Uiso   1.00
Si911  Si    0.64093   0.61333   0.11183   0.01267  Uiso   1.00
Si912  Si    0.60194   0.62750   0.06311   0.01267  Uiso   1.00
Si913  Si    0.59316   0.60990   0.32322   0.01267  Uiso   1.00
Si914  Si    0.54047   0.61092   0.32371   0.01267  Uiso   1.00
Si915  Si    0.52388   0.62818   0.06142   0.01267  Uiso   1.00
Si916  Si    0.56088   0.61448   0.11094   0.01267  Uiso   1.00
Si917  Si    0.64068   0.72839   0.10660   0.01267  Uiso   1.00
Si918  Si    0.60197   0.70635   0.05884   0.01267  Uiso   1.00
Si919  Si    0.58975   0.72814   0.32048   0.01267  Uiso   1.00
Si920  Si    0.53867   0.72920   0.32262   0.01267  Uiso   1.00
Si921  Si    0.52186   0.70739   0.05999   0.01267  Uiso   1.00
Si922  Si    0.56132   0.72794   0.10318   0.01267  Uiso   1.00
Si923  Si    0.52314   0.86263   0.27943   0.01267  Uiso   1.00
Si924  Si    0.57286   0.86101   0.15366   0.01267  Uiso   1.00
Si925  Si    0.62499   0.86063   0.15596   0.01267  Uiso   1.00
Si926  Si    0.64137   0.87844   0.22655   0.01267  Uiso   1.00
Si927  Si    0.60527   0.86452   0.27741   0.01267  Uiso   1.00
Si928  Si    0.52631   0.98070   0.27254   0.01267  Uiso   1.00
Si929  Si    0.56260   0.95916   0.22516   0.01267  Uiso   1.00
Si930  Si    0.57629   0.97759   0.15291   0.01267  Uiso   1.00
Si931  Si    0.62736   0.97888   0.15675   0.01267  Uiso   1.00
Si932  Si    0.64328   0.95751   0.22729   0.01267  Uiso   1.00
Si933  Si    0.60356   0.97842   0.26981   0.01267  Uiso   1.00
Si934  Si    0.64180   0.92051   0.11228   0.01267  Uiso   1.00
Si935  Si    0.60324   0.90671   0.06163   0.01267  Uiso   1.00
Si936  Si    0.59409   0.92403   0.32340   0.01267  Uiso   1.00
Si937  Si    0.54166   0.92479   0.32071   0.01267  Uiso   1.00
Si938  Si    0.52339   0.90644   0.05795   0.01267  Uiso   1.00
Si939  Si    0.56109   0.92013   0.10641   0.01267  Uiso   1.00
Si940  Si    0.63986   0.80632   0.10743   0.01267  Uiso   1.00
Si941  Si    0.60205   0.82776   0.05817   0.01267  Uiso   1.00
Si942  Si    0.59051   0.80566   0.32037   0.01267  Uiso   1.00
Si943  Si    0.53953   0.80555   0.32488   0.01267  Uiso   1.00
Si944  Si    0.52303   0.82750   0.06143   0.01267  Uiso   1.00
Si945  Si    0.56221   0.80657   0.10325   0.01267  Uiso   1.00
Si946  Si    0.47491   0.61413   0.04847   0.01267  Uiso   1.00
Si947  Si    0.43590   0.62878   0.09701   0.01267  Uiso   1.00
Si948  Si    0.42656   0.61147   0.17046   0.01267  Uiso   1.00
Si949  Si    0.37395   0.60984   0.17126   0.01267  Uiso   1.00
Si950  Si    0.35683   0.62786   0.10093   0.01267  Uiso   1.00
Si951  Si    0.39416   0.61511   0.05131   0.01267  Uiso   1.00
Si952  Si    0.47347   0.72972   0.05401   0.01267  Uiso   1.00
Si953  Si    0.43562   0.70766   0.10154   0.01267  Uiso   1.00
Si954  Si    0.42325   0.72806   0.17376   0.01267  Uiso   1.00
Si955  Si    0.37224   0.72898   0.17025   0.01267  Uiso   1.00
Si956  Si    0.35585   0.70688   0.10005   0.01267  Uiso   1.00
Si957  Si    0.39504   0.72748   0.05616   0.01267  Uiso   1.00
Si958  Si    0.35800   0.67092   0.21532   0.01267  Uiso   1.00
Si959  Si    0.39701   0.65642   0.26404   0.01267  Uiso   1.00
Si960  Si    0.40634   0.67379   0.00407   0.01267  Uiso   1.00
Si961  Si    0.45889   0.67511   0.00446   0.01267  Uiso   1.00
Si962  Si    0.47577   0.65708   0.26759   0.01267  Uiso   1.00
Si963  Si    0.43867   0.67019   0.21775   0.01267  Uiso   1.00
Si964  Si    0.35937   0.55522   0.22130   0.01267  Uiso   1.00
Si965  Si    0.39745   0.57725   0.26862   0.01267  Uiso   1.00
Si966  Si    0.41015   0.55712   0.00760   0.01267  Uiso   1.00
Si967  Si    0.46102   0.55621   0.00369   0.01267  Uiso   1.00
Si968  Si    0.47682   0.57843   0.26677   0.01267  Uiso   1.00
Si969  Si    0.43798   0.55753   0.22242   0.01267  Uiso   1.00
Al970  Al    0.56363   0.87991   0.22842   0.01267  Uiso   1.00
O971   O     0.45602   0.92143   0.07863   0.01267  Uiso   1.00
O972   O     0.43302   0.92660   0.13282   0.01267  Uiso   1.00
O973   O     0.40021   0.92470   0.17630   0.01267  Uiso   1.00
O974   O     0.36787   0.92384   0.13247   0.01267  Uiso   1.00
O975   O     0.37062   0.92097   0.06767   0.01267  Uiso   1.00
O976   O     0.41302   0.91265   0.07690   0.01267  Uiso   1.00
O977   O     0.45520   0.81232   0.08016   0.01267  Uiso   1.00
O978   O     0.43557   0.81040   0.13702   0.01267  Uiso   1.00
O979   O     0.39795   0.81678   0.16893   0.01267  Uiso   1.00
O980   O     0.36005   0.81212   0.13783   0.01267  Uiso   1.00
O981   O     0.36958   0.80949   0.07401   0.01267  Uiso   1.00
O982   O     0.41187   0.81989   0.08328   0.01267  Uiso   1.00
O983   O     0.43822   0.86745   0.10494   0.01267  Uiso   1.00
O984   O     0.36071   0.86710   0.10219   0.01267  Uiso   1.00
O985   O     0.47434   0.95708   0.03116   0.01267  Uiso   1.00
O986   O     0.46836   0.89291   0.02208   0.01267  Uiso   1.00
O987   O     0.46879   0.82703   0.01951   0.01267  Uiso   1.00
O988   O     0.39810   0.95725   0.03378   0.01267  Uiso   1.00
O989   O     0.39456   0.89288   0.02114   0.01267  Uiso   1.00
O990   O     0.39493   0.82649   0.02336   0.01267  Uiso   1.00
O991   O     0.66552   0.91696   0.09476   0.01267  Uiso   1.00
O992   O     0.66258   0.82216   0.09349   0.01267  Uiso   1.00
O993   O     0.37490   0.86781   0.24822   0.01267  Uiso   1.00
O994   O     0.39992   0.85786   0.30022   0.01267  Uiso   1.00
O995   O     0.43144   0.85982   0.01276   0.01267  Uiso   1.00
O996   O     0.46153   0.86169   0.29918   0.01267  Uiso   1.00
O997   O     0.46129   0.86629   0.23458   0.01267  Uiso   1.00
O998   O     0.41820   0.86995   0.24271   0.01267  Uiso   1.00
O999   O     0.37777   0.97099   0.24763   0.01267  Uiso   1.00
O1000  O     0.39823   0.97570   0.30409   0.01267  Uiso   1.00
O1001  O     0.43565   0.96804   0.00329   0.01267  Uiso   1.00
O1002  O     0.47188   0.97628   0.30192   0.01267  Uiso   1.00
O1003  O     0.46362   0.97348   0.23778   0.01267  Uiso   1.00
O1004  O     0.42129   0.96659   0.24986   0.01267  Uiso   1.00
O1005  O     0.39712   0.91792   0.27381   0.01267  Uiso   1.00
O1006  O     0.47235   0.91861   0.27123   0.01267  Uiso   1.00
O1007  O     0.36089   0.82739   0.20143   0.01267  Uiso   1.00
O1008  O     0.36393   0.89154   0.18889   0.01267  Uiso   1.00
O1009  O     0.36359   0.95768   0.18709   0.01267  Uiso   1.00
O1010  O     0.43558   0.82757   0.20010   0.01267  Uiso   1.00
O1011  O     0.43686   0.89220   0.18774   0.01267  Uiso   1.00
O1012  O     0.43645   0.95849   0.18896   0.01267  Uiso   1.00
O1013  O     0.49875   0.86661   0.26536   0.01267  Uiso   1.00
O1014  O     0.50374   0.96316   0.25994   0.01267  Uiso   1.00
O1015  O     0.54360   0.67053   0.24953   0.01267  Uiso   1.00
O1016  O     0.56594   0.67668   0.19463   0.01267  Uiso   1.00
O1017  O     0.59912   0.67257   0.15199   0.01267  Uiso   1.00
O1018  O     0.63202   0.67439   0.19489   0.01267  Uiso   1.00
O1019  O     0.62891   0.66848   0.25959   0.01267  Uiso   1.00
O1020  O     0.58654   0.66069   0.24965   0.01267  Uiso   1.00
O1021  O     0.54431   0.56143   0.24680   0.01267  Uiso   1.00
O1022  O     0.56445   0.55981   0.18975   0.01267  Uiso   1.00
O1023  O     0.60178   0.56689   0.15693   0.01267  Uiso   1.00
O1024  O     0.63730   0.55793   0.19322   0.01267  Uiso   1.00
O1025  O     0.62946   0.56251   0.25717   0.01267  Uiso   1.00
O1026  O     0.58751   0.57087   0.24380   0.01267  Uiso   1.00
O1027  O     0.56041   0.61690   0.22134   0.01267  Uiso   1.00
O1028  O     0.63966   0.61645   0.22250   0.01267  Uiso   1.00
O1029  O     0.52527   0.70749   0.29579   0.01267  Uiso   1.00
O1030  O     0.52951   0.64300   0.30589   0.01267  Uiso   1.00
O1031  O     0.53126   0.57705   0.30736   0.01267  Uiso   1.00
O1032  O     0.60122   0.70630   0.29185   0.01267  Uiso   1.00
O1033  O     0.60432   0.64246   0.30661   0.01267  Uiso   1.00
O1034  O     0.60168   0.57627   0.30546   0.01267  Uiso   1.00
O1035  O     0.33424   0.66664   0.23256   0.01267  Uiso   1.00
O1036  O     0.33634   0.57036   0.23462   0.01267  Uiso   1.00
O1037  O     0.62236   0.61223   0.08345   0.01267  Uiso   1.00
O1038  O     0.60004   0.60810   0.02831   0.01267  Uiso   1.00
O1039  O     0.56677   0.61299   0.31925   0.01267  Uiso   1.00
O1040  O     0.53389   0.61042   0.02889   0.01267  Uiso   1.00
O1041  O     0.53697   0.61539   0.09363   0.01267  Uiso   1.00
O1042  O     0.57940   0.62250   0.08348   0.01267  Uiso   1.00
O1043  O     0.62162   0.72361   0.07928   0.01267  Uiso   1.00
O1044  O     0.60180   0.72215   0.02219   0.01267  Uiso   1.00
O1045  O     0.56408   0.71723   0.32376   0.01267  Uiso   1.00
O1046  O     0.52789   0.72536   0.02542   0.01267  Uiso   1.00
O1047  O     0.53650   0.72310   0.08947   0.01267  Uiso   1.00
O1048  O     0.57844   0.71293   0.07639   0.01267  Uiso   1.00
O1049  O     0.60614   0.66672   0.05661   0.01267  Uiso   1.00
O1050  O     0.52669   0.66802   0.05708   0.01267  Uiso   1.00
O1051  O     0.64119   0.57820   0.13134   0.01267  Uiso   1.00
O1052  O     0.63644   0.64304   0.13797   0.01267  Uiso   1.00
O1053  O     0.63448   0.70885   0.14034   0.01267  Uiso   1.00
O1054  O     0.56426   0.57786   0.12666   0.01267  Uiso   1.00
O1055  O     0.56170   0.64239   0.13975   0.01267  Uiso   1.00
O1056  O     0.56401   0.70873   0.13813   0.01267  Uiso   1.00
O1057  O     0.49832   0.61850   0.06667   0.01267  Uiso   1.00
O1058  O     0.49614   0.71387   0.06797   0.01267  Uiso   1.00
O1059  O     0.53960   0.85663   0.24647   0.01267  Uiso   1.00
O1060  O     0.56504   0.86067   0.19097   0.01267  Uiso   1.00
O1061  O     0.59919   0.86732   0.14939   0.01267  Uiso   1.00
O1062  O     0.63060   0.86023   0.19479   0.01267  Uiso   1.00
O1063  O     0.62910   0.86596   0.25945   0.01267  Uiso   1.00
O1064  O     0.58552   0.87173   0.25297   0.01267  Uiso   1.00
O1065  O     0.54403   0.98202   0.24302   0.01267  Uiso   1.00
O1066  O     0.56341   0.97089   0.18694   0.01267  Uiso   1.00
O1067  O     0.60191   0.96688   0.15705   0.01267  Uiso   1.00
O1068  O     0.63743   0.97710   0.19354   0.01267  Uiso   1.00
O1069  O     0.62844   0.97177   0.25716   0.01267  Uiso   1.00
O1070  O     0.58655   0.96707   0.24138   0.01267  Uiso   1.00
O1071  O     0.55613   0.92088   0.22890   0.01267  Uiso   1.00
O1072  O     0.63874   0.91830   0.22180   0.01267  Uiso   1.00
O1073  O     0.52456   0.82962   0.30181   0.01267  Uiso   1.00
O1074  O     0.53188   0.89522   0.29746   0.01267  Uiso   1.00
O1075  O     0.53601   0.96026   0.30397   0.01267  Uiso   1.00
O1076  O     0.60315   0.82731   0.29306   0.01267  Uiso   1.00
O1077  O     0.60559   0.89181   0.30712   0.01267  Uiso   1.00
O1078  O     0.59955   0.95802   0.30368   0.01267  Uiso   1.00
O1079  O     0.33371   0.86897   0.23025   0.01267  Uiso   1.00
O1080  O     0.33550   0.96397   0.23671   0.01267  Uiso   1.00
O1081  O     0.62298   0.92036   0.08438   0.01267  Uiso   1.00
O1082  O     0.60342   0.92736   0.02733   0.01267  Uiso   1.00
O1083  O     0.56762   0.91887   0.32441   0.01267  Uiso   1.00
O1084  O     0.52991   0.92326   0.02297   0.01267  Uiso   1.00
O1085  O     0.53762   0.92216   0.08765   0.01267  Uiso   1.00
O1086  O     0.57987   0.91257   0.07933   0.01267  Uiso   1.00
O1087  O     0.62120   0.81051   0.07956   0.01267  Uiso   1.00
O1088  O     0.60223   0.81028   0.02243   0.01267  Uiso   1.00
O1089  O     0.56486   0.81756   0.32286   0.01267  Uiso   1.00
O1090  O     0.53043   0.80701   0.02882   0.01267  Uiso   1.00
O1091  O     0.53689   0.81355   0.09256   0.01267  Uiso   1.00
O1092  O     0.57817   0.82127   0.07478   0.01267  Uiso   1.00
O1093  O     0.60648   0.86725   0.05478   0.01267  Uiso   1.00
O1094  O     0.52766   0.86664   0.05538   0.01267  Uiso   1.00
O1095  O     0.64126   0.95545   0.13206   0.01267  Uiso   1.00
O1096  O     0.63892   0.88988   0.13798   0.01267  Uiso   1.00
O1097  O     0.63232   0.82484   0.14105   0.01267  Uiso   1.00
O1098  O     0.56538   0.95578   0.12373   0.01267  Uiso   1.00
O1099  O     0.56032   0.89021   0.13310   0.01267  Uiso   1.00
O1100  O     0.56689   0.82472   0.13796   0.01267  Uiso   1.00
O1101  O     0.49774   0.91377   0.06541   0.01267  Uiso   1.00
O1102  O     0.49722   0.82127   0.06889   0.01267  Uiso   1.00
O1103  O     0.45559   0.61226   0.07584   0.01267  Uiso   1.00
O1104  O     0.43460   0.61046   0.13248   0.01267  Uiso   1.00
O1105  O     0.40018   0.61589   0.17292   0.01267  Uiso   1.00
O1106  O     0.36591   0.60870   0.13336   0.01267  Uiso   1.00
O1107  O     0.37033   0.61560   0.06883   0.01267  Uiso   1.00
O1108  O     0.41271   0.62402   0.07839   0.01267  Uiso   1.00
O1109  O     0.45502   0.72726   0.08258   0.01267  Uiso   1.00
O1110  O     0.43525   0.72138   0.13887   0.01267  Uiso   1.00
O1111  O     0.39771   0.71682   0.17101   0.01267  Uiso   1.00
O1112  O     0.36299   0.72703   0.13294   0.01267  Uiso   1.00
O1113  O     0.37035   0.71971   0.06899   0.01267  Uiso   1.00
O1114  O     0.41215   0.71458   0.08408   0.01267  Uiso   1.00
O1115  O     0.44070   0.66816   0.10149   0.01267  Uiso   1.00
O1116  O     0.35999   0.66758   0.10627   0.01267  Uiso   1.00
O1117  O     0.47549   0.57989   0.02744   0.01267  Uiso   1.00
O1118  O     0.47135   0.64523   0.02351   0.01267  Uiso   1.00
O1119  O     0.46530   0.71037   0.02119   0.01267  Uiso   1.00
O1120  O     0.39815   0.57837   0.03620   0.01267  Uiso   1.00
O1121  O     0.39453   0.64248   0.02192   0.01267  Uiso   1.00
O1122  O     0.39939   0.70847   0.02156   0.01267  Uiso   1.00
O1123  O     0.66462   0.61894   0.09471   0.01267  Uiso   1.00
O1124  O     0.66359   0.71399   0.09184   0.01267  Uiso   1.00
O1125  O     0.37681   0.67222   0.24347   0.01267  Uiso   1.00
O1126  O     0.39852   0.67503   0.29934   0.01267  Uiso   1.00
O1127  O     0.43271   0.66889   0.00669   0.01267  Uiso   1.00
O1128  O     0.46670   0.67665   0.29977   0.01267  Uiso   1.00
O1129  O     0.46246   0.66930   0.23533   0.01267  Uiso   1.00
O1130  O     0.41990   0.66195   0.24468   0.01267  Uiso   1.00
O1131  O     0.37747   0.55870   0.25021   0.01267  Uiso   1.00
O1132  O     0.39823   0.56342   0.30592   0.01267  Uiso   1.00
O1133  O     0.43566   0.56871   0.00485   0.01267  Uiso   1.00
O1134  O     0.46995   0.55774   0.29948   0.01267  Uiso   1.00
O1135  O     0.46250   0.56575   0.23561   0.01267  Uiso   1.00
O1136  O     0.42052   0.56938   0.25027   0.01267  Uiso   1.00
O1137  O     0.39303   0.61694   0.26893   0.01267  Uiso   1.00
O1138  O     0.47228   0.61756   0.27348   0.01267  Uiso   1.00
O1139  O     0.35807   0.70544   0.19460   0.01267  Uiso   1.00
O1140  O     0.36186   0.64006   0.19032   0.01267  Uiso   1.00
O1141  O     0.36755   0.57477   0.18845   0.01267  Uiso   1.00
O1142  O     0.43518   0.70711   0.20263   0.01267  Uiso   1.00
O1143  O     0.43813   0.64296   0.18836   0.01267  Uiso   1.00
O1144  O     0.43371   0.57696   0.18803   0.01267  Uiso   1.00
O1145  O     0.50141   0.66553   0.26144   0.01267  Uiso   1.00
O1146  O     0.50249   0.57232   0.25840   0.01267  Uiso   1.00
O1147  O     0.47704   0.76833   0.04424   0.01267  Uiso   1.00
O1148  O     0.39827   0.76690   0.04974   0.01267  Uiso   1.00
O1149  O     0.42530   0.76700   0.18341   0.01267  Uiso   1.00
O1150  O     0.37041   0.76709   0.18272   0.01267  Uiso   1.00
O1151  O     0.35666   0.51637   0.21210   0.01267  Uiso   1.00
O1152  O     0.43552   0.51819   0.21513   0.01267  Uiso   1.00
O1153  O     0.40865   0.51822   0.01758   0.01267  Uiso   1.00
O1154  O     0.46296   0.51819   0.01658   0.01267  Uiso   1.00
O1155  O     0.52145   0.51866   0.28382   0.01267  Uiso   1.00
O1156  O     0.60043   0.51762   0.27782   0.01267  Uiso   1.00
O1157  O     0.57460   0.51665   0.14292   0.01267  Uiso   1.00
O1158  O     0.62924   0.51699   0.14397   0.01267  Uiso   1.00
O1159  O     0.64324   0.76730   0.11560   0.01267  Uiso   1.00
O1160  O     0.56609   0.76711   0.10862   0.01267  Uiso   1.00
O1161  O     0.59144   0.76682   0.30992   0.01267  Uiso   1.00
O1162  O     0.53687   0.76789   0.31118   0.01267  Uiso   1.00
H1163  H     0.53696   0.83470   0.23533   0.01267  Uiso   1.00
H1164  H     0.47267   0.77145   0.21660   0.01267  Uiso   1.00
H1165  H     0.50391   0.76659   0.26164   0.01267  Uiso   1.00
H1166  H     0.48877   0.79076   0.15927   0.01267  Uiso   1.00
H1167  H     0.53170   0.80035   0.16274   0.01267  Uiso   1.00
C1168  C     0.49860   0.78716   0.18131   0.01267  Uiso   1.00
C1169  C     0.52076   0.79220   0.18214   0.01267  Uiso   1.00
C1170  C     0.48991   0.77679   0.21228   0.01267  Uiso   1.00
C1171  C     0.50560   0.77421   0.23616   0.01267  Uiso   1.00
S1172  S     0.53117   0.78357   0.22059   0.01267  Uiso   1.00
Si1173 Si    0.80731   0.42119   0.04936   0.01267  Uiso   1.00
Si1174 Si    0.76835   0.40689   0.09820   0.01267  Uiso   1.00
Si1175 Si    0.75989   0.42554   0.17144   0.01267  Uiso   1.00
Si1176 Si    0.70725   0.42431   0.17112   0.01267  Uiso   1.00
Si1177 Si    0.69098   0.40704   0.09959   0.01267  Uiso   1.00
Si1178 Si    0.72765   0.42090   0.04987   0.01267  Uiso   1.00
Si1179 Si    0.80782   0.30725   0.05337   0.01267  Uiso   1.00
Si1180 Si    0.76841   0.32772   0.10102   0.01267  Uiso   1.00
Si1181 Si    0.75679   0.30554   0.17222   0.01267  Uiso   1.00
Si1182 Si    0.70563   0.30593   0.17253   0.01267  Uiso   1.00
Si1183 Si    0.68827   0.32789   0.10197   0.01267  Uiso   1.00
Si1184 Si    0.72704   0.30574   0.05763   0.01267  Uiso   1.00
Si1185 Si    0.69177   0.36423   0.21717   0.01267  Uiso   1.00
Si1186 Si    0.73081   0.37849   0.26607   0.01267  Uiso   1.00
Si1187 Si    0.73853   0.35933   0.00593   0.01267  Uiso   1.00
Si1188 Si    0.79078   0.36049   0.00515   0.01267  Uiso   1.00
Si1189 Si    0.80673   0.37867   0.26770   0.01267  Uiso   1.00
Si1190 Si    0.77101   0.36419   0.21636   0.01267  Uiso   1.00
Si1191 Si    0.69174   0.47730   0.22113   0.01267  Uiso   1.00
Si1192 Si    0.73184   0.45772   0.26847   0.01267  Uiso   1.00
Si1193 Si    0.74347   0.47974   0.00619   0.01267  Uiso   1.00
Si1194 Si    0.79450   0.47979   0.00483   0.01267  Uiso   1.00
Si1195 Si    0.81124   0.45789   0.26769   0.01267  Uiso   1.00
Si1196 Si    0.77249   0.47916   0.22301   0.01267  Uiso   1.00
Si1197 Si    0.85852   0.17124   0.27811   0.01267  Uiso   1.00
Si1198 Si    0.89749   0.15602   0.22886   0.01267  Uiso   1.00
Si1199 Si    0.90607   0.17512   0.15608   0.01267  Uiso   1.00
Si1200 Si    0.95877   0.17459   0.15637   0.01267  Uiso   1.00
Si1201 Si    0.97546   0.15628   0.22721   0.01267  Uiso   1.00
Si1202 Si    0.93834   0.16942   0.27690   0.01267  Uiso   1.00
Si1203 Si    0.85836   0.05729   0.27384   0.01267  Uiso   1.00
Si1204 Si    0.89754   0.07722   0.22564   0.01267  Uiso   1.00
Si1205 Si    0.90959   0.05516   0.15422   0.01267  Uiso   1.00
Si1206 Si    0.96064   0.05508   0.15646   0.01267  Uiso   1.00
Si1207 Si    0.97729   0.07696   0.22685   0.01267  Uiso   1.00
Si1208 Si    0.93806   0.05663   0.27089   0.01267  Uiso   1.00
Si1209 Si    0.97426   0.11333   0.11183   0.01267  Uiso   1.00
Si1210 Si    0.93527   0.12750   0.06311   0.01267  Uiso   1.00
Si1211 Si    0.92649   0.10990   0.32322   0.01267  Uiso   1.00
Si1212 Si    0.87380   0.11092   0.32371   0.01267  Uiso   1.00
Si1213 Si    0.85722   0.12818   0.06142   0.01267  Uiso   1.00
Si1214 Si    0.89421   0.11448   0.11094   0.01267  Uiso   1.00
Si1215 Si    0.97401   0.22839   0.10660   0.01267  Uiso   1.00
Si1216 Si    0.93530   0.20635   0.05884   0.01267  Uiso   1.00
Si1217 Si    0.92309   0.22814   0.32048   0.01267  Uiso   1.00
Si1218 Si    0.87200   0.22920   0.32262   0.01267  Uiso   1.00
Si1219 Si    0.85519   0.20739   0.05999   0.01267  Uiso   1.00
Si1220 Si    0.89466   0.22794   0.10318   0.01267  Uiso   1.00
Si1221 Si    0.85647   0.36263   0.27943   0.01267  Uiso   1.00
Si1222 Si    0.90619   0.36101   0.15366   0.01267  Uiso   1.00
Si1223 Si    0.95832   0.36063   0.15596   0.01267  Uiso   1.00
Si1224 Si    0.97471   0.37844   0.22655   0.01267  Uiso   1.00
Si1225 Si    0.93860   0.36452   0.27741   0.01267  Uiso   1.00
Si1226 Si    0.85965   0.48070   0.27254   0.01267  Uiso   1.00
Si1227 Si    0.89594   0.45916   0.22516   0.01267  Uiso   1.00
Si1228 Si    0.90962   0.47759   0.15291   0.01267  Uiso   1.00
Si1229 Si    0.96069   0.47888   0.15675   0.01267  Uiso   1.00
Si1230 Si    0.97662   0.45751   0.22729   0.01267  Uiso   1.00
Si1231 Si    0.93689   0.47842   0.26981   0.01267  Uiso   1.00
Si1232 Si    0.97514   0.42051   0.11228   0.01267  Uiso   1.00
Si1233 Si    0.93657   0.40671   0.06163   0.01267  Uiso   1.00
Si1234 Si    0.92742   0.42403   0.32340   0.01267  Uiso   1.00
Si1235 Si    0.87499   0.42479   0.32071   0.01267  Uiso   1.00
Si1236 Si    0.85672   0.40644   0.05795   0.01267  Uiso   1.00
Si1237 Si    0.89443   0.42013   0.10641   0.01267  Uiso   1.00
Si1238 Si    0.97319   0.30632   0.10743   0.01267  Uiso   1.00
Si1239 Si    0.93539   0.32776   0.05817   0.01267  Uiso   1.00
Si1240 Si    0.92384   0.30566   0.32037   0.01267  Uiso   1.00
Si1241 Si    0.87286   0.30555   0.32488   0.01267  Uiso   1.00
Si1242 Si    0.85636   0.32750   0.06143   0.01267  Uiso   1.00
Si1243 Si    0.89555   0.30657   0.10325   0.01267  Uiso   1.00
Si1244 Si    0.80824   0.11413   0.04847   0.01267  Uiso   1.00
Si1245 Si    0.76923   0.12878   0.09701   0.01267  Uiso   1.00
Si1246 Si    0.75989   0.11147   0.17046   0.01267  Uiso   1.00
Si1247 Si    0.70728   0.10984   0.17126   0.01267  Uiso   1.00
Si1248 Si    0.69017   0.12786   0.10093   0.01267  Uiso   1.00
Si1249 Si    0.72749   0.11511   0.05131   0.01267  Uiso   1.00
Si1250 Si    0.80680   0.22972   0.05401   0.01267  Uiso   1.00
Si1251 Si    0.76895   0.20766   0.10154   0.01267  Uiso   1.00
Si1252 Si    0.75658   0.22806   0.17376   0.01267  Uiso   1.00
Si1253 Si    0.70557   0.22898   0.17025   0.01267  Uiso   1.00
Si1254 Si    0.68919   0.20688   0.10005   0.01267  Uiso   1.00
Si1255 Si    0.72837   0.22748   0.05616   0.01267  Uiso   1.00
Si1256 Si    0.69133   0.17092   0.21532   0.01267  Uiso   1.00
Si1257 Si    0.73034   0.15642   0.26404   0.01267  Uiso   1.00
Si1258 Si    0.73967   0.17379   0.00407   0.01267  Uiso   1.00
Si1259 Si    0.79222   0.17511   0.00446   0.01267  Uiso   1.00
Si1260 Si    0.80911   0.15708   0.26759   0.01267  Uiso   1.00
Si1261 Si    0.77201   0.17019   0.21775   0.01267  Uiso   1.00
Si1262 Si    0.69270   0.05522   0.22130   0.01267  Uiso   1.00
Si1263 Si    0.73079   0.07725   0.26862   0.01267  Uiso   1.00
Si1264 Si    0.74348   0.05712   0.00760   0.01267  Uiso   1.00
Si1265 Si    0.79436   0.05621   0.00369   0.01267  Uiso   1.00
Si1266 Si    0.81015   0.07843   0.26677   0.01267  Uiso   1.00
Si1267 Si    0.77131   0.05753   0.22242   0.01267  Uiso   1.00
Al1268 Al    0.89696   0.37991   0.22842   0.01267  Uiso   1.00
O1269  O     0.78935   0.42143   0.07863   0.01267  Uiso   1.00
O1270  O     0.76635   0.42660   0.13282   0.01267  Uiso   1.00
O1271  O     0.73354   0.42470   0.17630   0.01267  Uiso   1.00
O1272  O     0.70120   0.42384   0.13247   0.01267  Uiso   1.00
O1273  O     0.70395   0.42097   0.06767   0.01267  Uiso   1.00
O1274  O     0.74635   0.41265   0.07690   0.01267  Uiso   1.00
O1275  O     0.78853   0.31232   0.08016   0.01267  Uiso   1.00
O1276  O     0.76890   0.31040   0.13702   0.01267  Uiso   1.00
O1277  O     0.73128   0.31678   0.16893   0.01267  Uiso   1.00
O1278  O     0.69339   0.31212   0.13783   0.01267  Uiso   1.00
O1279  O     0.70292   0.30949   0.07401   0.01267  Uiso   1.00
O1280  O     0.74520   0.31989   0.08328   0.01267  Uiso   1.00
O1281  O     0.77155   0.36745   0.10494   0.01267  Uiso   1.00
O1282  O     0.69404   0.36710   0.10219   0.01267  Uiso   1.00
O1283  O     0.80768   0.45708   0.03116   0.01267  Uiso   1.00
O1284  O     0.80169   0.39291   0.02208   0.01267  Uiso   1.00
O1285  O     0.80213   0.32703   0.01951   0.01267  Uiso   1.00
O1286  O     0.73143   0.45725   0.03378   0.01267  Uiso   1.00
O1287  O     0.72790   0.39288   0.02114   0.01267  Uiso   1.00
O1288  O     0.72826   0.32649   0.02336   0.01267  Uiso   1.00
O1289  O     0.99885   0.41696   0.09476   0.01267  Uiso   1.00
O1290  O     0.99591   0.32216   0.09349   0.01267  Uiso   1.00
O1291  O     0.70823   0.36781   0.24822   0.01267  Uiso   1.00
O1292  O     0.73326   0.35786   0.30022   0.01267  Uiso   1.00
O1293  O     0.76478   0.35982   0.01276   0.01267  Uiso   1.00
O1294  O     0.79487   0.36169   0.29918   0.01267  Uiso   1.00
O1295  O     0.79462   0.36629   0.23458   0.01267  Uiso   1.00
O1296  O     0.75153   0.36995   0.24271   0.01267  Uiso   1.00
O1297  O     0.71110   0.47099   0.24763   0.01267  Uiso   1.00
O1298  O     0.73156   0.47570   0.30409   0.01267  Uiso   1.00
O1299  O     0.76898   0.46804   0.00329   0.01267  Uiso   1.00
O1300  O     0.80522   0.47628   0.30192   0.01267  Uiso   1.00
O1301  O     0.79695   0.47348   0.23778   0.01267  Uiso   1.00
O1302  O     0.75463   0.46659   0.24986   0.01267  Uiso   1.00
O1303  O     0.73046   0.41792   0.27381   0.01267  Uiso   1.00
O1304  O     0.80568   0.41861   0.27123   0.01267  Uiso   1.00
O1305  O     0.69422   0.32739   0.20143   0.01267  Uiso   1.00
O1306  O     0.69727   0.39154   0.18889   0.01267  Uiso   1.00
O1307  O     0.69692   0.45768   0.18709   0.01267  Uiso   1.00
O1308  O     0.76891   0.32757   0.20010   0.01267  Uiso   1.00
O1309  O     0.77020   0.39220   0.18774   0.01267  Uiso   1.00
O1310  O     0.76978   0.45849   0.18896   0.01267  Uiso   1.00
O1311  O     0.83208   0.36661   0.26536   0.01267  Uiso   1.00
O1312  O     0.83707   0.46316   0.25994   0.01267  Uiso   1.00
O1313  O     0.87693   0.17053   0.24953   0.01267  Uiso   1.00
O1314  O     0.89927   0.17668   0.19463   0.01267  Uiso   1.00
O1315  O     0.93245   0.17257   0.15199   0.01267  Uiso   1.00
O1316  O     0.96536   0.17439   0.19489   0.01267  Uiso   1.00
O1317  O     0.96224   0.16848   0.25959   0.01267  Uiso   1.00
O1318  O     0.91987   0.16069   0.24965   0.01267  Uiso   1.00
O1319  O     0.87765   0.06143   0.24680   0.01267  Uiso   1.00
O1320  O     0.89778   0.05981   0.18975   0.01267  Uiso   1.00
O1321  O     0.93511   0.06689   0.15693   0.01267  Uiso   1.00
O1322  O     0.97064   0.05793   0.19322   0.01267  Uiso   1.00
O1323  O     0.96280   0.06251   0.25717   0.01267  Uiso   1.00
O1324  O     0.92084   0.07087   0.24380   0.01267  Uiso   1.00
O1325  O     0.89375   0.11690   0.22134   0.01267  Uiso   1.00
O1326  O     0.97299   0.11645   0.22250   0.01267  Uiso   1.00
O1327  O     0.85860   0.20749   0.29579   0.01267  Uiso   1.00
O1328  O     0.86285   0.14300   0.30589   0.01267  Uiso   1.00
O1329  O     0.86460   0.07705   0.30736   0.01267  Uiso   1.00
O1330  O     0.93455   0.20630   0.29185   0.01267  Uiso   1.00
O1331  O     0.93765   0.14246   0.30661   0.01267  Uiso   1.00
O1332  O     0.93501   0.07627   0.30546   0.01267  Uiso   1.00
O1333  O     0.66757   0.16664   0.23256   0.01267  Uiso   1.00
O1334  O     0.66968   0.07036   0.23462   0.01267  Uiso   1.00
O1335  O     0.95570   0.11223   0.08345   0.01267  Uiso   1.00
O1336  O     0.93337   0.10810   0.02831   0.01267  Uiso   1.00
O1337  O     0.90011   0.11299   0.31925   0.01267  Uiso   1.00
O1338  O     0.86722   0.11042   0.02889   0.01267  Uiso   1.00
O1339  O     0.87031   0.11539   0.09363   0.01267  Uiso   1.00
O1340  O     0.91274   0.12250   0.08348   0.01267  Uiso   1.00
O1341  O     0.95495   0.22361   0.07928   0.01267  Uiso   1.00
O1342  O     0.93513   0.22215   0.02219   0.01267  Uiso   1.00
O1343  O     0.89741   0.21723   0.32376   0.01267  Uiso   1.00
O1344  O     0.86123   0.22536   0.02542   0.01267  Uiso   1.00
O1345  O     0.86983   0.22310   0.08947   0.01267  Uiso   1.00
O1346  O     0.91177   0.21293   0.07639   0.01267  Uiso   1.00
O1347  O     0.93947   0.16672   0.05661   0.01267  Uiso   1.00
O1348  O     0.86003   0.16802   0.05708   0.01267  Uiso   1.00
O1349  O     0.97452   0.07820   0.13134   0.01267  Uiso   1.00
O1350  O     0.96977   0.14304   0.13797   0.01267  Uiso   1.00
O1351  O     0.96782   0.20885   0.14034   0.01267  Uiso   1.00
O1352  O     0.89759   0.07786   0.12666   0.01267  Uiso   1.00
O1353  O     0.89503   0.14239   0.13975   0.01267  Uiso   1.00
O1354  O     0.89734   0.20873   0.13813   0.01267  Uiso   1.00
O1355  O     0.83165   0.11850   0.06667   0.01267  Uiso   1.00
O1356  O     0.82947   0.21387   0.06797   0.01267  Uiso   1.00
O1357  O     0.87293   0.35663   0.24647   0.01267  Uiso   1.00
O1358  O     0.89837   0.36067   0.19097   0.01267  Uiso   1.00
O1359  O     0.93253   0.36732   0.14939   0.01267  Uiso   1.00
O1360  O     0.96393   0.36023   0.19479   0.01267  Uiso   1.00
O1361  O     0.96243   0.36596   0.25945   0.01267  Uiso   1.00
O1362  O     0.91886   0.37173   0.25297   0.01267  Uiso   1.00
O1363  O     0.87736   0.48202   0.24302   0.01267  Uiso   1.00
O1364  O     0.89674   0.47089   0.18694   0.01267  Uiso   1.00
O1365  O     0.93524   0.46688   0.15705   0.01267  Uiso   1.00
O1366  O     0.97076   0.47710   0.19354   0.01267  Uiso   1.00
O1367  O     0.96177   0.47177   0.25716   0.01267  Uiso   1.00
O1368  O     0.91988   0.46707   0.24138   0.01267  Uiso   1.00
O1369  O     0.88946   0.42088   0.22890   0.01267  Uiso   1.00
O1370  O     0.97207   0.41830   0.22180   0.01267  Uiso   1.00
O1371  O     0.85790   0.32962   0.30181   0.01267  Uiso   1.00
O1372  O     0.86521   0.39522   0.29746   0.01267  Uiso   1.00
O1373  O     0.86934   0.46026   0.30397   0.01267  Uiso   1.00
O1374  O     0.93648   0.32731   0.29306   0.01267  Uiso   1.00
O1375  O     0.93892   0.39181   0.30712   0.01267  Uiso   1.00
O1376  O     0.93289   0.45802   0.30368   0.01267  Uiso   1.00
O1377  O     0.66705   0.36897   0.23025   0.01267  Uiso   1.00
O1378  O     0.66883   0.46397   0.23671   0.01267  Uiso   1.00
O1379  O     0.95631   0.42036   0.08438   0.01267  Uiso   1.00
O1380  O     0.93675   0.42736   0.02733   0.01267  Uiso   1.00
O1381  O     0.90096   0.41887   0.32441   0.01267  Uiso   1.00
O1382  O     0.86324   0.42326   0.02297   0.01267  Uiso   1.00
O1383  O     0.87095   0.42216   0.08765   0.01267  Uiso   1.00
O1384  O     0.91321   0.41257   0.07933   0.01267  Uiso   1.00
O1385  O     0.95453   0.31051   0.07956   0.01267  Uiso   1.00
O1386  O     0.93556   0.31028   0.02243   0.01267  Uiso   1.00
O1387  O     0.89819   0.31756   0.32286   0.01267  Uiso   1.00
O1388  O     0.86377   0.30701   0.02882   0.01267  Uiso   1.00
O1389  O     0.87022   0.31355   0.09256   0.01267  Uiso   1.00
O1390  O     0.91151   0.32127   0.07478   0.01267  Uiso   1.00
O1391  O     0.93981   0.36725   0.05478   0.01267  Uiso   1.00
O1392  O     0.86100   0.36664   0.05538   0.01267  Uiso   1.00
O1393  O     0.97459   0.45545   0.13206   0.01267  Uiso   1.00
O1394  O     0.97225   0.38988   0.13798   0.01267  Uiso   1.00
O1395  O     0.96565   0.32484   0.14105   0.01267  Uiso   1.00
O1396  O     0.89871   0.45578   0.12373   0.01267  Uiso   1.00
O1397  O     0.89365   0.39021   0.13310   0.01267  Uiso   1.00
O1398  O     0.90022   0.32472   0.13796   0.01267  Uiso   1.00
O1399  O     0.83107   0.41377   0.06541   0.01267  Uiso   1.00
O1400  O     0.83056   0.32127   0.06889   0.01267  Uiso   1.00
O1401  O     0.78892   0.11226   0.07584   0.01267  Uiso   1.00
O1402  O     0.76793   0.11046   0.13248   0.01267  Uiso   1.00
O1403  O     0.73352   0.11589   0.17292   0.01267  Uiso   1.00
O1404  O     0.69924   0.10870   0.13336   0.01267  Uiso   1.00
O1405  O     0.70366   0.11560   0.06883   0.01267  Uiso   1.00
O1406  O     0.74604   0.12402   0.07839   0.01267  Uiso   1.00
O1407  O     0.78836   0.22726   0.08258   0.01267  Uiso   1.00
O1408  O     0.76858   0.22138   0.13887   0.01267  Uiso   1.00
O1409  O     0.73104   0.21682   0.17101   0.01267  Uiso   1.00
O1410  O     0.69633   0.22703   0.13294   0.01267  Uiso   1.00
O1411  O     0.70368   0.21971   0.06899   0.01267  Uiso   1.00
O1412  O     0.74548   0.21458   0.08408   0.01267  Uiso   1.00
O1413  O     0.77404   0.16816   0.10149   0.01267  Uiso   1.00
O1414  O     0.69332   0.16758   0.10627   0.01267  Uiso   1.00
O1415  O     0.80883   0.07989   0.02744   0.01267  Uiso   1.00
O1416  O     0.80469   0.14523   0.02351   0.01267  Uiso   1.00
O1417  O     0.79863   0.21037   0.02119   0.01267  Uiso   1.00
O1418  O     0.73149   0.07837   0.03620   0.01267  Uiso   1.00
O1419  O     0.72786   0.14248   0.02192   0.01267  Uiso   1.00
O1420  O     0.73272   0.20847   0.02156   0.01267  Uiso   1.00
O1421  O     0.99795   0.11894   0.09471   0.01267  Uiso   1.00
O1422  O     0.99692   0.21399   0.09184   0.01267  Uiso   1.00
O1423  O     0.71014   0.17222   0.24347   0.01267  Uiso   1.00
O1424  O     0.73186   0.17503   0.29934   0.01267  Uiso   1.00
O1425  O     0.76604   0.16889   0.00669   0.01267  Uiso   1.00
O1426  O     0.80003   0.17665   0.29977   0.01267  Uiso   1.00
O1427  O     0.79579   0.16930   0.23533   0.01267  Uiso   1.00
O1428  O     0.75323   0.16195   0.24468   0.01267  Uiso   1.00
O1429  O     0.71080   0.05870   0.25021   0.01267  Uiso   1.00
O1430  O     0.73156   0.06342   0.30592   0.01267  Uiso   1.00
O1431  O     0.76900   0.06871   0.00485   0.01267  Uiso   1.00
O1432  O     0.80328   0.05774   0.29948   0.01267  Uiso   1.00
O1433  O     0.79583   0.06575   0.23561   0.01267  Uiso   1.00
O1434  O     0.75385   0.06938   0.25027   0.01267  Uiso   1.00
O1435  O     0.72636   0.11694   0.26893   0.01267  Uiso   1.00
O1436  O     0.80561   0.11756   0.27348   0.01267  Uiso   1.00
O1437  O     0.69141   0.20544   0.19460   0.01267  Uiso   1.00
O1438  O     0.69519   0.14006   0.19032   0.01267  Uiso   1.00
O1439  O     0.70088   0.07477   0.18845   0.01267  Uiso   1.00
O1440  O     0.76852   0.20711   0.20263   0.01267  Uiso   1.00
O1441  O     0.77146   0.14296   0.18836   0.01267  Uiso   1.00
O1442  O     0.76704   0.07696   0.18803   0.01267  Uiso   1.00
O1443  O     0.83474   0.16553   0.26144   0.01267  Uiso   1.00
O1444  O     0.83583   0.07232   0.25840   0.01267  Uiso   1.00
O1445  O     0.81037   0.26833   0.04424   0.01267  Uiso   1.00
O1446  O     0.73160   0.26690   0.04974   0.01267  Uiso   1.00
O1447  O     0.75863   0.26700   0.18341   0.01267  Uiso   1.00
O1448  O     0.70374   0.26709   0.18272   0.01267  Uiso   1.00
O1449  O     0.68999   0.01637   0.21210   0.01267  Uiso   1.00
O1450  O     0.76885   0.01819   0.21513   0.01267  Uiso   1.00
O1451  O     0.74198   0.01822   0.01758   0.01267  Uiso   1.00
O1452  O     0.79629   0.01819   0.01658   0.01267  Uiso   1.00
O1453  O     0.85478   0.01866   0.28382   0.01267  Uiso   1.00
O1454  O     0.93376   0.01762   0.27782   0.01267  Uiso   1.00
O1455  O     0.90793   0.01665   0.14292   0.01267  Uiso   1.00
O1456  O     0.96257   0.01699   0.14397   0.01267  Uiso   1.00
O1457  O     0.97657   0.26730   0.11560   0.01267  Uiso   1.00
O1458  O     0.89943   0.26711   0.10862   0.01267  Uiso   1.00
O1459  O     0.92478   0.26682   0.30992   0.01267  Uiso   1.00
O1460  O     0.87021   0.26789   0.31118   0.01267  Uiso   1.00
Si1461 Si    0.80731   0.92119   0.04936   0.01267  Uiso   1.00
Si1462 Si    0.76835   0.90689   0.09820   0.01267  Uiso   1.00
Si1463 Si    0.75989   0.92554   0.17144   0.01267  Uiso   1.00
Si1464 Si    0.70725   0.92431   0.17112   0.01267  Uiso   1.00
Si1465 Si    0.69098   0.90704   0.09959   0.01267  Uiso   1.00
Si1466 Si    0.72765   0.92090   0.04987   0.01267  Uiso   1.00
Si1467 Si    0.80782   0.80725   0.05337   0.01267  Uiso   1.00
Si1468 Si    0.76841   0.82772   0.10102   0.01267  Uiso   1.00
Si1469 Si    0.75679   0.80554   0.17222   0.01267  Uiso   1.00
Si1470 Si    0.70563   0.80593   0.17253   0.01267  Uiso   1.00
Si1471 Si    0.68827   0.82789   0.10197   0.01267  Uiso   1.00
Si1472 Si    0.72704   0.80574   0.05763   0.01267  Uiso   1.00
Si1473 Si    0.69177   0.86423   0.21717   0.01267  Uiso   1.00
Si1474 Si    0.73081   0.87849   0.26607   0.01267  Uiso   1.00
Si1475 Si    0.73853   0.85933   0.00593   0.01267  Uiso   1.00
Si1476 Si    0.79078   0.86049   0.00515   0.01267  Uiso   1.00
Si1477 Si    0.80673   0.87867   0.26770   0.01267  Uiso   1.00
Si1478 Si    0.77101   0.86419   0.21636   0.01267  Uiso   1.00
Si1479 Si    0.69174   0.97730   0.22113   0.01267  Uiso   1.00
Si1480 Si    0.73184   0.95772   0.26847   0.01267  Uiso   1.00
Si1481 Si    0.74347   0.97974   0.00619   0.01267  Uiso   1.00
Si1482 Si    0.79450   0.97979   0.00483   0.01267  Uiso   1.00
Si1483 Si    0.81124   0.95789   0.26769   0.01267  Uiso   1.00
Si1484 Si    0.77249   0.97916   0.22301   0.01267  Uiso   1.00
Si1485 Si    0.85852   0.67124   0.27811   0.01267  Uiso   1.00
Si1486 Si    0.89749   0.65602   0.22886   0.01267  Uiso   1.00
Si1487 Si    0.90607   0.67512   0.15608   0.01267  Uiso   1.00
Si1488 Si    0.95877   0.67459   0.15637   0.01267  Uiso   1.00
Si1489 Si    0.97546   0.65628   0.22721   0.01267  Uiso   1.00
Si1490 Si    0.93834   0.66942   0.27690   0.01267  Uiso   1.00
Si1491 Si    0.85836   0.55729   0.27384   0.01267  Uiso   1.00
Si1492 Si    0.89754   0.57722   0.22564   0.01267  Uiso   1.00
Si1493 Si    0.90959   0.55516   0.15422   0.01267  Uiso   1.00
Si1494 Si    0.96064   0.55508   0.15646   0.01267  Uiso   1.00
Si1495 Si    0.97729   0.57696   0.22685   0.01267  Uiso   1.00
Si1496 Si    0.93806   0.55663   0.27089   0.01267  Uiso   1.00
Si1497 Si    0.97426   0.61333   0.11183   0.01267  Uiso   1.00
Si1498 Si    0.93527   0.62750   0.06311   0.01267  Uiso   1.00
Si1499 Si    0.92649   0.60990   0.32322   0.01267  Uiso   1.00
Si1500 Si    0.87380   0.61092   0.32371   0.01267  Uiso   1.00
Si1501 Si    0.85722   0.62818   0.06142   0.01267  Uiso   1.00
Si1502 Si    0.89421   0.61448   0.11094   0.01267  Uiso   1.00
Si1503 Si    0.97401   0.72839   0.10660   0.01267  Uiso   1.00
Si1504 Si    0.93530   0.70635   0.05884   0.01267  Uiso   1.00
Si1505 Si    0.92309   0.72814   0.32048   0.01267  Uiso   1.00
Si1506 Si    0.87200   0.72920   0.32262   0.01267  Uiso   1.00
Si1507 Si    0.85519   0.70739   0.05999   0.01267  Uiso   1.00
Si1508 Si    0.89466   0.72794   0.10318   0.01267  Uiso   1.00
Si1509 Si    0.85647   0.86263   0.27943   0.01267  Uiso   1.00
Si1510 Si    0.90619   0.86101   0.15366   0.01267  Uiso   1.00
Si1511 Si    0.95832   0.86063   0.15596   0.01267  Uiso   1.00
Si1512 Si    0.97471   0.87844   0.22655   0.01267  Uiso   1.00
Si1513 Si    0.93860   0.86452   0.27741   0.01267  Uiso   1.00
Si1514 Si    0.85965   0.98070   0.27254   0.01267  Uiso   1.00
Si1515 Si    0.89594   0.95916   0.22516   0.01267  Uiso   1.00
Si1516 Si    0.90962   0.97759   0.15291   0.01267  Uiso   1.00
Si1517 Si    0.96069   0.97888   0.15675   0.01267  Uiso   1.00
Si1518 Si    0.97662   0.95751   0.22729   0.01267  Uiso   1.00
Si1519 Si    0.93689   0.97842   0.26981   0.01267  Uiso   1.00
Si1520 Si    0.97514   0.92051   0.11228   0.01267  Uiso   1.00
Si1521 Si    0.93657   0.90671   0.06163   0.01267  Uiso   1.00
Si1522 Si    0.92742   0.92403   0.32340   0.01267  Uiso   1.00
Si1523 Si    0.87499   0.92479   0.32071   0.01267  Uiso   1.00
Si1524 Si    0.85672   0.90644   0.05795   0.01267  Uiso   1.00
Si1525 Si    0.89443   0.92013   0.10641   0.01267  Uiso   1.00
Si1526 Si    0.97319   0.80632   0.10743   0.01267  Uiso   1.00
Si1527 Si    0.93539   0.82776   0.05817   0.01267  Uiso   1.00
Si1528 Si    0.92384   0.80566   0.32037   0.01267  Uiso   1.00
Si1529 Si    0.87286   0.80555   0.32488   0.01267  Uiso   1.00
Si1530 Si    0.85636   0.82750   0.06143   0.01267  Uiso   1.00
Si1531 Si    0.89555   0.80657   0.10325   0.01267  Uiso   1.00
Si1532 Si    0.80824   0.61413   0.04847   0.01267  Uiso   1.00
Si1533 Si    0.76923   0.62878   0.09701   0.01267  Uiso   1.00
Si1534 Si    0.75989   0.61147   0.17046   0.01267  Uiso   1.00
Si1535 Si    0.70728   0.60984   0.17126   0.01267  Uiso   1.00
Si1536 Si    0.69017   0.62786   0.10093   0.01267  Uiso   1.00
Si1537 Si    0.72749   0.61511   0.05131   0.01267  Uiso   1.00
Si1538 Si    0.80680   0.72972   0.05401   0.01267  Uiso   1.00
Si1539 Si    0.76895   0.70766   0.10154   0.01267  Uiso   1.00
Si1540 Si    0.75658   0.72806   0.17376   0.01267  Uiso   1.00
Si1541 Si    0.70557   0.72898   0.17025   0.01267  Uiso   1.00
Si1542 Si    0.68919   0.70688   0.10005   0.01267  Uiso   1.00
Si1543 Si    0.72837   0.72748   0.05616   0.01267  Uiso   1.00
Si1544 Si    0.69133   0.67092   0.21532   0.01267  Uiso   1.00
Si1545 Si    0.73034   0.65642   0.26404   0.01267  Uiso   1.00
Si1546 Si    0.73967   0.67379   0.00407   0.01267  Uiso   1.00
Si1547 Si    0.79222   0.67511   0.00446   0.01267  Uiso   1.00
Si1548 Si    0.80911   0.65708   0.26759   0.01267  Uiso   1.00
Si1549 Si    0.77201   0.67019   0.21775   0.01267  Uiso   1.00
Si1550 Si    0.69270   0.55522   0.22130   0.01267  Uiso   1.00
Si1551 Si    0.73079   0.57725   0.26862   0.01267  Uiso   1.00
Si1552 Si    0.74348   0.55712   0.00760   0.01267  Uiso   1.00
Si1553 Si    0.79436   0.55621   0.00369   0.01267  Uiso   1.00
Si1554 Si    0.81015   0.57843   0.26677   0.01267  Uiso   1.00
Si1555 Si    0.77131   0.55753   0.22242   0.01267  Uiso   1.00
Al1556 Al    0.89696   0.87991   0.22842   0.01267  Uiso   1.00
O1557  O     0.78935   0.92143   0.07863   0.01267  Uiso   1.00
O1558  O     0.76635   0.92660   0.13282   0.01267  Uiso   1.00
O1559  O     0.73354   0.92470   0.17630   0.01267  Uiso   1.00
O1560  O     0.70120   0.92384   0.13247   0.01267  Uiso   1.00
O1561  O     0.70395   0.92097   0.06767   0.01267  Uiso   1.00
O1562  O     0.74635   0.91265   0.07690   0.01267  Uiso   1.00
O1563  O     0.78853   0.81232   0.08016   0.01267  Uiso   1.00
O1564  O     0.76890   0.81040   0.13702   0.01267  Uiso   1.00
O1565  O     0.73128   0.81678   0.16893   0.01267  Uiso   1.00
O1566  O     0.69339   0.81212   0.13783   0.01267  Uiso   1.00
O1567  O     0.70292   0.80949   0.07401   0.01267  Uiso   1.00
O1568  O     0.74520   0.81989   0.08328   0.01267  Uiso   1.00
O1569  O     0.77155   0.86745   0.10494   0.01267  Uiso   1.00
O1570  O     0.69404   0.86710   0.10219   0.01267  Uiso   1.00
O1571  O     0.80768   0.95708   0.03116   0.01267  Uiso   1.00
O1572  O     0.80169   0.89291   0.02208   0.01267  Uiso   1.00
O1573  O     0.80213   0.82703   0.01951   0.01267  Uiso   1.00
O1574  O     0.73143   0.95725   0.03378   0.01267  Uiso   1.00
O1575  O     0.72790   0.89288   0.02114   0.01267  Uiso   1.00
O1576  O     0.72826   0.82649   0.02336   0.01267  Uiso   1.00
O1577  O     0.99885   0.91696   0.09476   0.01267  Uiso   1.00
O1578  O     0.99591   0.82216   0.09349   0.01267  Uiso   1.00
O1579  O     0.70823   0.86781   0.24822   0.01267  Uiso   1.00
O1580  O     0.73326   0.85786   0.30022   0.01267  Uiso   1.00
O1581  O     0.76478   0.85982   0.01276   0.01267  Uiso   1.00
O1582  O     0.79487   0.86169   0.29918   0.01267  Uiso   1.00
O1583  O     0.79462   0.86629   0.23458   0.01267  Uiso   1.00
O1584  O     0.75153   0.86995   0.24271   0.01267  Uiso   1.00
O1585  O     0.71110   0.97099   0.24763   0.01267  Uiso   1.00
O1586  O     0.73156   0.97570   0.30409   0.01267  Uiso   1.00
O1587  O     0.76898   0.96804   0.00329   0.01267  Uiso   1.00
O1588  O     0.80522   0.97628   0.30192   0.01267  Uiso   1.00
O1589  O     0.79695   0.97348   0.23778   0.01267  Uiso   1.00
O1590  O     0.75463   0.96659   0.24986   0.01267  Uiso   1.00
O1591  O     0.73046   0.91792   0.27381   0.01267  Uiso   1.00
O1592  O     0.80568   0.91861   0.27123   0.01267  Uiso   1.00
O1593  O     0.69422   0.82739   0.20143   0.01267  Uiso   1.00
O1594  O     0.69727   0.89154   0.18889   0.01267  Uiso   1.00
O1595  O     0.69692   0.95768   0.18709   0.01267  Uiso   1.00
O1596  O     0.76891   0.82757   0.20010   0.01267  Uiso   1.00
O1597  O     0.77020   0.89220   0.18774   0.01267  Uiso   1.00
O1598  O     0.76978   0.95849   0.18896   0.01267  Uiso   1.00
O1599  O     0.83208   0.86661   0.26536   0.01267  Uiso   1.00
O1600  O     0.83707   0.96316   0.25994   0.01267  Uiso   1.00
O1601  O     0.87693   0.67053   0.24953   0.01267  Uiso   1.00
O1602  O     0.89927   0.67668   0.19463   0.01267  Uiso   1.00
O1603  O     0.93245   0.67257   0.15199   0.01267  Uiso   1.00
O1604  O     0.96536   0.67439   0.19489   0.01267  Uiso   1.00
O1605  O     0.96224   0.66848   0.25959   0.01267  Uiso   1.00
O1606  O     0.91987   0.66069   0.24965   0.01267  Uiso   1.00
O1607  O     0.87765   0.56143   0.24680   0.01267  Uiso   1.00
O1608  O     0.89778   0.55981   0.18975   0.01267  Uiso   1.00
O1609  O     0.93511   0.56689   0.15693   0.01267  Uiso   1.00
O1610  O     0.97064   0.55793   0.19322   0.01267  Uiso   1.00
O1611  O     0.96280   0.56251   0.25717   0.01267  Uiso   1.00
O1612  O     0.92084   0.57087   0.24380   0.01267  Uiso   1.00
O1613  O     0.89375   0.61690   0.22134   0.01267  Uiso   1.00
O1614  O     0.97299   0.61645   0.22250   0.01267  Uiso   1.00
O1615  O     0.85860   0.70749   0.29579   0.01267  Uiso   1.00
O1616  O     0.86285   0.64300   0.30589   0.01267  Uiso   1.00
O1617  O     0.86460   0.57705   0.30736   0.01267  Uiso   1.00
O1618  O     0.93455   0.70630   0.29185   0.01267  Uiso   1.00
O1619  O     0.93765   0.64246   0.30661   0.01267  Uiso   1.00
O1620  O     0.93501   0.57627   0.30546   0.01267  Uiso   1.00
O1621  O     0.66757   0.66664   0.23256   0.01267  Uiso   1.00
O1622  O     0.66968   0.57036   0.23462   0.01267  Uiso   1.00
O1623  O     0.95570   0.61223   0.08345   0.01267  Uiso   1.00
O1624  O     0.93337   0.60810   0.02831   0.01267  Uiso   1.00
O1625  O     0.90011   0.61299   0.31925   0.01267  Uiso   1.00
O1626  O     0.86722   0.61042   0.02889   0.01267  Uiso   1.00
O1627  O     0.87031   0.61539   0.09363   0.01267  Uiso   1.00
O1628  O     0.91274   0.62250   0.08348   0.01267  Uiso   1.00
O1629  O     0.95495   0.72361   0.07928   0.01267  Uiso   1.00
O1630  O     0.93513   0.72215   0.02219   0.01267  Uiso   1.00
O1631  O     0.89741   0.71723   0.32376   0.01267  Uiso   1.00
O1632  O     0.86123   0.72536   0.02542   0.01267  Uiso   1.00
O1633  O     0.86983   0.72310   0.08947   0.01267  Uiso   1.00
O1634  O     0.91177   0.71293   0.07639   0.01267  Uiso   1.00
O1635  O     0.93947   0.66672   0.05661   0.01267  Uiso   1.00
O1636  O     0.86003   0.66802   0.05708   0.01267  Uiso   1.00
O1637  O     0.97452   0.57820   0.13134   0.01267  Uiso   1.00
O1638  O     0.96977   0.64304   0.13797   0.01267  Uiso   1.00
O1639  O     0.96782   0.70885   0.14034   0.01267  Uiso   1.00
O1640  O     0.89759   0.57786   0.12666   0.01267  Uiso   1.00
O1641  O     0.89503   0.64239   0.13975   0.01267  Uiso   1.00
O1642  O     0.89734   0.70873   0.13813   0.01267  Uiso   1.00
O1643  O     0.83165   0.61850   0.06667   0.01267  Uiso   1.00
O1644  O     0.82947   0.71387   0.06797   0.01267  Uiso   1.00
O1645  O     0.87293   0.85663   0.24647   0.01267  Uiso   1.00
O1646  O     0.89837   0.86067   0.19097   0.01267  Uiso   1.00
O1647  O     0.93253   0.86732   0.14939   0.01267  Uiso   1.00
O1648  O     0.96393   0.86023   0.19479   0.01267  Uiso   1.00
O1649  O     0.96243   0.86596   0.25945   0.01267  Uiso   1.00
O1650  O     0.91886   0.87173   0.25297   0.01267  Uiso   1.00
O1651  O     0.87736   0.98202   0.24302   0.01267  Uiso   1.00
O1652  O     0.89674   0.97089   0.18694   0.01267  Uiso   1.00
O1653  O     0.93524   0.96688   0.15705   0.01267  Uiso   1.00
O1654  O     0.97076   0.97710   0.19354   0.01267  Uiso   1.00
O1655  O     0.96177   0.97177   0.25716   0.01267  Uiso   1.00
O1656  O     0.91988   0.96707   0.24138   0.01267  Uiso   1.00
O1657  O     0.88946   0.92088   0.22890   0.01267  Uiso   1.00
O1658  O     0.97207   0.91830   0.22180   0.01267  Uiso   1.00
O1659  O     0.85790   0.82962   0.30181   0.01267  Uiso   1.00
O1660  O     0.86521   0.89522   0.29746   0.01267  Uiso   1.00
O1661  O     0.86934   0.96026   0.30397   0.01267  Uiso   1.00
O1662  O     0.93648   0.82731   0.29306   0.01267  Uiso   1.00
O1663  O     0.93892   0.89181   0.30712   0.01267  Uiso   1.00
O1664  O     0.93289   0.95802   0.30368   0.01267  Uiso   1.00
O1665  O     0.66705   0.86897   0.23025   0.01267  Uiso   1.00
O1666  O     0.66883   0.96397   0.23671   0.01267  Uiso   1.00
O1667  O     0.95631   0.92036   0.08438   0.01267  Uiso   1.00
O1668  O     0.93675   0.92736   0.02733   0.01267  Uiso   1.00
O1669  O     0.90096   0.91887   0.32441   0.01267  Uiso   1.00
O1670  O     0.86324   0.92326   0.02297   0.01267  Uiso   1.00
O1671  O     0.87095   0.92216   0.08765   0.01267  Uiso   1.00
O1672  O     0.91321   0.91257   0.07933   0.01267  Uiso   1.00
O1673  O     0.95453   0.81051   0.07956   0.01267  Uiso   1.00
O1674  O     0.93556   0.81028   0.02243   0.01267  Uiso   1.00
O1675  O     0.89819   0.81756   0.32286   0.01267  Uiso   1.00
O1676  O     0.86377   0.80701   0.02882   0.01267  Uiso   1.00
O1677  O     0.87022   0.81355   0.09256   0.01267  Uiso   1.00
O1678  O     0.91151   0.82127   0.07478   0.01267  Uiso   1.00
O1679  O     0.93981   0.86725   0.05478   0.01267  Uiso   1.00
O1680  O     0.86100   0.86664   0.05538   0.01267  Uiso   1.00
O1681  O     0.97459   0.95545   0.13206   0.01267  Uiso   1.00
O1682  O     0.97225   0.88988   0.13798   0.01267  Uiso   1.00
O1683  O     0.96565   0.82484   0.14105   0.01267  Uiso   1.00
O1684  O     0.89871   0.95578   0.12373   0.01267  Uiso   1.00
O1685  O     0.89365   0.89021   0.13310   0.01267  Uiso   1.00
O1686  O     0.90022   0.82472   0.13796   0.01267  Uiso   1.00
O1687  O     0.83107   0.91377   0.06541   0.01267  Uiso   1.00
O1688  O     0.83056   0.82127   0.06889   0.01267  Uiso   1.00
O1689  O     0.78892   0.61226   0.07584   0.01267  Uiso   1.00
O1690  O     0.76793   0.61046   0.13248   0.01267  Uiso   1.00
O1691  O     0.73352   0.61589   0.17292   0.01267  Uiso   1.00
O1692  O     0.69924   0.60870   0.13336   0.01267  Uiso   1.00
O1693  O     0.70366   0.61560   0.06883   0.01267  Uiso   1.00
O1694  O     0.74604   0.62402   0.07839   0.01267  Uiso   1.00
O1695  O     0.78836   0.72726   0.08258   0.01267  Uiso   1.00
O1696  O     0.76858   0.72138   0.13887   0.01267  Uiso   1.00
O1697  O     0.73104   0.71682   0.17101   0.01267  Uiso   1.00
O1698  O     0.69633   0.72703   0.13294   0.01267  Uiso   1.00
O1699  O     0.70368   0.71971   0.06899   0.01267  Uiso   1.00
O1700  O     0.74548   0.71458   0.08408   0.01267  Uiso   1.00
O1701  O     0.77404   0.66816   0.10149   0.01267  Uiso   1.00
O1702  O     0.69332   0.66758   0.10627   0.01267  Uiso   1.00
O1703  O     0.80883   0.57989   0.02744   0.01267  Uiso   1.00
O1704  O     0.80469   0.64523   0.02351   0.01267  Uiso   1.00
O1705  O     0.79863   0.71037   0.02119   0.01267  Uiso   1.00
O1706  O     0.73149   0.57837   0.03620   0.01267  Uiso   1.00
O1707  O     0.72786   0.64248   0.02192   0.01267  Uiso   1.00
O1708  O     0.73272   0.70847   0.02156   0.01267  Uiso   1.00
O1709  O     0.99795   0.61894   0.09471   0.01267  Uiso   1.00
O1710  O     0.99692   0.71399   0.09184   0.01267  Uiso   1.00
O1711  O     0.71014   0.67222   0.24347   0.01267  Uiso   1.00
O1712  O     0.73186   0.67503   0.29934   0.01267  Uiso   1.00
O1713  O     0.76604   0.66889   0.00669   0.01267  Uiso   1.00
O1714  O     0.80003   0.67665   0.29977   0.01267  Uiso   1.00
O1715  O     0.79579   0.66930   0.23533   0.01267  Uiso   1.00
O1716  O     0.75323   0.66195   0.24468   0.01267  Uiso   1.00
O1717  O     0.71080   0.55870   0.25021   0.01267  Uiso   1.00
O1718  O     0.73156   0.56342   0.30592   0.01267  Uiso   1.00
O1719  O     0.76900   0.56871   0.00485   0.01267  Uiso   1.00
O1720  O     0.80328   0.55774   0.29948   0.01267  Uiso   1.00
O1721  O     0.79583   0.56575   0.23561   0.01267  Uiso   1.00
O1722  O     0.75385   0.56938   0.25027   0.01267  Uiso   1.00
O1723  O     0.72636   0.61694   0.26893   0.01267  Uiso   1.00
O1724  O     0.80561   0.61756   0.27348   0.01267  Uiso   1.00
O1725  O     0.69141   0.70544   0.19460   0.01267  Uiso   1.00
O1726  O     0.69519   0.64006   0.19032   0.01267  Uiso   1.00
O1727  O     0.70088   0.57477   0.18845   0.01267  Uiso   1.00
O1728  O     0.76852   0.70711   0.20263   0.01267  Uiso   1.00
O1729  O     0.77146   0.64296   0.18836   0.01267  Uiso   1.00
O1730  O     0.76704   0.57696   0.18803   0.01267  Uiso   1.00
O1731  O     0.83474   0.66553   0.26144   0.01267  Uiso   1.00
O1732  O     0.83583   0.57232   0.25840   0.01267  Uiso   1.00
O1733  O     0.81037   0.76833   0.04424   0.01267  Uiso   1.00
O1734  O     0.73160   0.76690   0.04974   0.01267  Uiso   1.00
O1735  O     0.75863   0.76700   0.18341   0.01267  Uiso   1.00
O1736  O     0.70374   0.76709   0.18272   0.01267  Uiso   1.00
O1737  O     0.68999   0.51637   0.21210   0.01267  Uiso   1.00
O1738  O     0.76885   0.51819   0.21513   0.01267  Uiso   1.00
O1739  O     0.74198   0.51822   0.01758   0.01267  Uiso   1.00
O1740  O     0.79629   0.51819   0.01658   0.01267  Uiso   1.00
O1741  O     0.85478   0.51866   0.28382   0.01267  Uiso   1.00
O1742  O     0.93376   0.51762   0.27782   0.01267  Uiso   1.00
O1743  O     0.90793   0.51665   0.14292   0.01267  Uiso   1.00
O1744  O     0.96257   0.51699   0.14397   0.01267  Uiso   1.00
O1745  O     0.97657   0.76730   0.11560   0.01267  Uiso   1.00
O1746  O     0.89943   0.76711   0.10862   0.01267  Uiso   1.00
O1747  O     0.92478   0.76682   0.30992   0.01267  Uiso   1.00
O1748  O     0.87021   0.76789   0.31118   0.01267  Uiso   1.00
H1749  H     0.87029   0.83470   0.23533   0.01267  Uiso   1.00
H1750  H     0.80601   0.77145   0.21660   0.01267  Uiso   1.00
H1751  H     0.83725   0.76659   0.26164   0.01267  Uiso   1.00
H1752  H     0.82210   0.79076   0.15927   0.01267  Uiso   1.00
H1753  H     0.86504   0.80035   0.16274   0.01267  Uiso   1.00
C1754  C     0.83193   0.78716   0.18131   0.01267  Uiso   1.00
C1755  C     0.85409   0.79220   0.18214   0.01267  Uiso   1.00
C1756  C     0.82325   0.77679   0.21228   0.01267  Uiso   1.00
C1757  C     0.83894   0.77421   0.23616   0.01267  Uiso   1.00
S1758  S     0.86450   0.78357   0.22059   0.01267  Uiso   1.00
Si1759 Si    0.14065   0.42119   0.38270   0.01267  Uiso   1.00
Si1760 Si    0.10168   0.40689   0.43153   0.01267  Uiso   1.00
Si1761 Si    0.09322   0.42554   0.50477   0.01267  Uiso   1.00
Si1762 Si    0.04058   0.42431   0.50446   0.01267  Uiso   1.00
Si1763 Si    0.02431   0.40704   0.43293   0.01267  Uiso   1.00
Si1764 Si    0.06098   0.42090   0.38320   0.01267  Uiso   1.00
Si1765 Si    0.14115   0.30725   0.38670   0.01267  Uiso   1.00
Si1766 Si    0.10174   0.32772   0.43435   0.01267  Uiso   1.00
Si1767 Si    0.09012   0.30554   0.50555   0.01267  Uiso   1.00
Si1768 Si    0.03896   0.30593   0.50587   0.01267  Uiso   1.00
Si1769 Si    0.02160   0.32789   0.43530   0.01267  Uiso   1.00
Si1770 Si    0.06038   0.30574   0.39096   0.01267  Uiso   1.00
Si1771 Si    0.02510   0.36423   0.55050   0.01267  Uiso   1.00
Si1772 Si    0.06414   0.37849   0.59940   0.01267  Uiso   1.00
Si1773 Si    0.07186   0.35933   0.33926   0.01267  Uiso   1.00
Si1774 Si    0.12411   0.36049   0.33848   0.01267  Uiso   1.00
Si1775 Si    0.14007   0.37867   0.60103   0.01267  Uiso   1.00
Si1776 Si    0.10434   0.36419   0.54970   0.01267  Uiso   1.00
Si1777 Si    0.02508   0.47730   0.55446   0.01267  Uiso   1.00
Si1778 Si    0.06517   0.45772   0.60180   0.01267  Uiso   1.00
Si1779 Si    0.07681   0.47974   0.33952   0.01267  Uiso   1.00
Si1780 Si    0.12784   0.47979   0.33817   0.01267  Uiso   1.00
Si1781 Si    0.14458   0.45789   0.60103   0.01267  Uiso   1.00
Si1782 Si    0.10582   0.47916   0.55634   0.01267  Uiso   1.00
Si1783 Si    0.19185   0.17124   0.61145   0.01267  Uiso   1.00
Si1784 Si    0.23082   0.15602   0.56220   0.01267  Uiso   1.00
Si1785 Si    0.23940   0.17512   0.48942   0.01267  Uiso   1.00
Si1786 Si    0.29210   0.17459   0.48971   0.01267  Uiso   1.00
Si1787 Si    0.30880   0.15628   0.56054   0.01267  Uiso   1.00
Si1788 Si    0.27167   0.16942   0.61023   0.01267  Uiso   1.00
Si1789 Si    0.19169   0.05729   0.60717   0.01267  Uiso   1.00
Si1790 Si    0.23087   0.07722   0.55898   0.01267  Uiso   1.00
Si1791 Si    0.24292   0.05516   0.48756   0.01267  Uiso   1.00
Si1792 Si    0.29397   0.05508   0.48980   0.01267  Uiso   1.00
Si1793 Si    0.31062   0.07696   0.56018   0.01267  Uiso   1.00
Si1794 Si    0.27139   0.05663   0.60422   0.01267  Uiso   1.00
Si1795 Si    0.30760   0.11333   0.44517   0.01267  Uiso   1.00
Si1796 Si    0.26860   0.12750   0.39645   0.01267  Uiso   1.00
Si1797 Si    0.25982   0.10990   0.65655   0.01267  Uiso   1.00
Si1798 Si    0.20714   0.11092   0.65704   0.01267  Uiso   1.00
Si1799 Si    0.19055   0.12818   0.39475   0.01267  Uiso   1.00
Si1800 Si    0.22754   0.11448   0.44428   0.01267  Uiso   1.00
Si1801 Si    0.30734   0.22839   0.43993   0.01267  Uiso   1.00
Si1802 Si    0.26864   0.20635   0.39217   0.01267  Uiso   1.00
Si1803 Si    0.25642   0.22814   0.65381   0.01267  Uiso   1.00
Si1804 Si    0.20533   0.22920   0.65595   0.01267  Uiso   1.00
Si1805 Si    0.18853   0.20739   0.39332   0.01267  Uiso   1.00
Si1806 Si    0.22799   0.22794   0.43651   0.01267  Uiso   1.00
Si1807 Si    0.18980   0.36263   0.61277   0.01267  Uiso   1.00
Si1808 Si    0.23952   0.36101   0.48699   0.01267  Uiso   1.00
Si1809 Si    0.29165   0.36063   0.48929   0.01267  Uiso   1.00
Si1810 Si    0.30804   0.37844   0.55988   0.01267  Uiso   1.00
Si1811 Si    0.27193   0.36452   0.61075   0.01267  Uiso   1.00
Si1812 Si    0.19298   0.48070   0.60587   0.01267  Uiso   1.00
Si1813 Si    0.22927   0.45916   0.55849   0.01267  Uiso   1.00
Si1814 Si    0.24295   0.47759   0.48624   0.01267  Uiso   1.00
Si1815 Si    0.29402   0.47888   0.49009   0.01267  Uiso   1.00
Si1816 Si    0.30995   0.45751   0.56062   0.01267  Uiso   1.00
Si1817 Si    0.27023   0.47842   0.60314   0.01267  Uiso   1.00
Si1818 Si    0.30847   0.42051   0.44562   0.01267  Uiso   1.00
Si1819 Si    0.26991   0.40671   0.39496   0.01267  Uiso   1.00
Si1820 Si    0.26076   0.42403   0.65673   0.01267  Uiso   1.00
Si1821 Si    0.20832   0.42479   0.65404   0.01267  Uiso   1.00
Si1822 Si    0.19006   0.40644   0.39128   0.01267  Uiso   1.00
Si1823 Si    0.22776   0.42013   0.43974   0.01267  Uiso   1.00
Si1824 Si    0.30653   0.30632   0.44077   0.01267  Uiso   1.00
Si1825 Si    0.26872   0.32776   0.39151   0.01267  Uiso   1.00
Si1826 Si    0.25718   0.30566   0.65370   0.01267  Uiso   1.00
Si1827 Si    0.20620   0.30555   0.65821   0.01267  Uiso   1.00
Si1828 Si    0.18970   0.32750   0.39476   0.01267  Uiso   1.00
Si1829 Si    0.22888   0.30657   0.43658   0.01267  Uiso   1.00
Si1830 Si    0.14157   0.11413   0.38181   0.01267  Uiso   1.00
Si1831 Si    0.10257   0.12878   0.43034   0.01267  Uiso   1.00
Si1832 Si    0.09323   0.11147   0.50379   0.01267  Uiso   1.00
Si1833 Si    0.04062   0.10984   0.50459   0.01267  Uiso   1.00
Si1834 Si    0.02350   0.12786   0.43427   0.01267  Uiso   1.00
Si1835 Si    0.06082   0.11511   0.38464   0.01267  Uiso   1.00
Si1836 Si    0.14013   0.22972   0.38734   0.01267  Uiso   1.00
Si1837 Si    0.10228   0.20766   0.43487   0.01267  Uiso   1.00
Si1838 Si    0.08992   0.22806   0.50709   0.01267  Uiso   1.00
Si1839 Si    0.03891   0.22898   0.50358   0.01267  Uiso   1.00
Si1840 Si    0.02252   0.20688   0.43338   0.01267  Uiso   1.00
Si1841 Si    0.06171   0.22748   0.38949   0.01267  Uiso   1.00
Si1842 Si    0.02466   0.17092   0.54866   0.01267  Uiso   1.00
Si1843 Si    0.06368   0.15642   0.59737   0.01267  Uiso   1.00
Si1844 Si    0.07301   0.17379   0.33740   0.01267  Uiso   1.00
Si1845 Si    0.12555   0.17511   0.33780   0.01267  Uiso   1.00
Si1846 Si    0.14244   0.15708   0.60093   0.01267  Uiso   1.00
Si1847 Si    0.10534   0.17019   0.55108   0.01267  Uiso   1.00
Si1848 Si    0.02604   0.05522   0.55464   0.01267  Uiso   1.00
Si1849 Si    0.06412   0.07725   0.60196   0.01267  Uiso   1.00
Si1850 Si    0.07682   0.05712   0.34093   0.01267  Uiso   1.00
Si1851 Si    0.12769   0.05621   0.33703   0.01267  Uiso   1.00
Si1852 Si    0.14348   0.07843   0.60011   0.01267  Uiso   1.00
Si1853 Si    0.10465   0.05753   0.55575   0.01267  Uiso   1.00
Al1854 Al    0.23030   0.37991   0.56176   0.01267  Uiso   1.00
O1855  O     0.12268   0.42143   0.41196   0.01267  Uiso   1.00
O1856  O     0.09968   0.42660   0.46615   0.01267  Uiso   1.00
O1857  O     0.06688   0.42470   0.50963   0.01267  Uiso   1.00
O1858  O     0.03454   0.42384   0.46581   0.01267  Uiso   1.00
O1859  O     0.03728   0.42097   0.40100   0.01267  Uiso   1.00
O1860  O     0.07969   0.41265   0.41023   0.01267  Uiso   1.00
O1861  O     0.12187   0.31232   0.41350   0.01267  Uiso   1.00
O1862  O     0.10224   0.31040   0.47035   0.01267  Uiso   1.00
O1863  O     0.06462   0.31678   0.50226   0.01267  Uiso   1.00
O1864  O     0.02672   0.31212   0.47117   0.01267  Uiso   1.00
O1865  O     0.03625   0.30949   0.40734   0.01267  Uiso   1.00
O1866  O     0.07854   0.31989   0.41661   0.01267  Uiso   1.00
O1867  O     0.10488   0.36745   0.43828   0.01267  Uiso   1.00
O1868  O     0.02737   0.36710   0.43552   0.01267  Uiso   1.00
O1869  O     0.14101   0.45708   0.36449   0.01267  Uiso   1.00
O1870  O     0.13502   0.39291   0.35541   0.01267  Uiso   1.00
O1871  O     0.13546   0.32703   0.35285   0.01267  Uiso   1.00
O1872  O     0.06476   0.45725   0.36711   0.01267  Uiso   1.00
O1873  O     0.06123   0.39288   0.35448   0.01267  Uiso   1.00
O1874  O     0.06160   0.32649   0.35670   0.01267  Uiso   1.00
O1875  O     0.33218   0.41696   0.42810   0.01267  Uiso   1.00
O1876  O     0.32925   0.32216   0.42683   0.01267  Uiso   1.00
O1877  O     0.04156   0.36781   0.58156   0.01267  Uiso   1.00
O1878  O     0.06659   0.35786   0.63356   0.01267  Uiso   1.00
O1879  O     0.09811   0.35982   0.34609   0.01267  Uiso   1.00
O1880  O     0.12820   0.36169   0.63251   0.01267  Uiso   1.00
O1881  O     0.12795   0.36629   0.56791   0.01267  Uiso   1.00
O1882  O     0.08487   0.36995   0.57604   0.01267  Uiso   1.00
O1883  O     0.04443   0.47099   0.58097   0.01267  Uiso   1.00
O1884  O     0.06490   0.47570   0.63743   0.01267  Uiso   1.00
O1885  O     0.10231   0.46804   0.33662   0.01267  Uiso   1.00
O1886  O     0.13855   0.47628   0.63525   0.01267  Uiso   1.00
O1887  O     0.13028   0.47348   0.57111   0.01267  Uiso   1.00
O1888  O     0.08796   0.46659   0.58320   0.01267  Uiso   1.00
O1889  O     0.06379   0.41792   0.60714   0.01267  Uiso   1.00
O1890  O     0.13901   0.41861   0.60456   0.01267  Uiso   1.00
O1891  O     0.02756   0.32739   0.53477   0.01267  Uiso   1.00
O1892  O     0.03060   0.39154   0.52222   0.01267  Uiso   1.00
O1893  O     0.03025   0.45768   0.52042   0.01267  Uiso   1.00
O1894  O     0.10224   0.32757   0.53344   0.01267  Uiso   1.00
O1895  O     0.10353   0.39220   0.52107   0.01267  Uiso   1.00
O1896  O     0.10311   0.45849   0.52229   0.01267  Uiso   1.00
O1897  O     0.16542   0.36661   0.59869   0.01267  Uiso   1.00
O1898  O     0.17040   0.46316   0.59327   0.01267  Uiso   1.00
O1899  O     0.21026   0.17053   0.58287   0.01267  Uiso   1.00
O1900  O     0.23261   0.17668   0.52797   0.01267  Uiso   1.00
O1901  O     0.26578   0.17257   0.48532   0.01267  Uiso   1.00
O1902  O     0.29869   0.17439   0.52822   0.01267  Uiso   1.00
O1903  O     0.29557   0.16848   0.59292   0.01267  Uiso   1.00
O1904  O     0.25320   0.16069   0.58298   0.01267  Uiso   1.00
O1905  O     0.21098   0.06143   0.58014   0.01267  Uiso   1.00
O1906  O     0.23112   0.05981   0.52308   0.01267  Uiso   1.00
O1907  O     0.26844   0.06689   0.49027   0.01267  Uiso   1.00
O1908  O     0.30397   0.05793   0.52655   0.01267  Uiso   1.00
O1909  O     0.29613   0.06251   0.59050   0.01267  Uiso   1.00
O1910  O     0.25417   0.07087   0.57714   0.01267  Uiso   1.00
O1911  O     0.22708   0.11690   0.55467   0.01267  Uiso   1.00
O1912  O     0.30633   0.11645   0.55583   0.01267  Uiso   1.00
O1913  O     0.19193   0.20749   0.62912   0.01267  Uiso   1.00
O1914  O     0.19618   0.14300   0.63923   0.01267  Uiso   1.00
O1915  O     0.19793   0.07705   0.64069   0.01267  Uiso   1.00
O1916  O     0.26788   0.20630   0.62519   0.01267  Uiso   1.00
O1917  O     0.27099   0.14246   0.63994   0.01267  Uiso   1.00
O1918  O     0.26834   0.07627   0.63880   0.01267  Uiso   1.00
O1919  O     0.00091   0.16664   0.56590   0.01267  Uiso   1.00
O1920  O     0.00301   0.07036   0.56796   0.01267  Uiso   1.00
O1921  O     0.28903   0.11223   0.41678   0.01267  Uiso   1.00
O1922  O     0.26670   0.10810   0.36164   0.01267  Uiso   1.00
O1923  O     0.23344   0.11299   0.65258   0.01267  Uiso   1.00
O1924  O     0.20055   0.11042   0.36222   0.01267  Uiso   1.00
O1925  O     0.20364   0.11539   0.42697   0.01267  Uiso   1.00
O1926  O     0.24607   0.12250   0.41681   0.01267  Uiso   1.00
O1927  O     0.28829   0.22361   0.41261   0.01267  Uiso   1.00
O1928  O     0.26846   0.22215   0.35552   0.01267  Uiso   1.00
O1929  O     0.23075   0.21723   0.65710   0.01267  Uiso   1.00
O1930  O     0.19456   0.22536   0.35875   0.01267  Uiso   1.00
O1931  O     0.20316   0.22310   0.42280   0.01267  Uiso   1.00
O1932  O     0.24511   0.21293   0.40972   0.01267  Uiso   1.00
O1933  O     0.27281   0.16672   0.38994   0.01267  Uiso   1.00
O1934  O     0.19336   0.16802   0.39042   0.01267  Uiso   1.00
O1935  O     0.30786   0.07820   0.46468   0.01267  Uiso   1.00
O1936  O     0.30310   0.14304   0.47130   0.01267  Uiso   1.00
O1937  O     0.30115   0.20885   0.47367   0.01267  Uiso   1.00
O1938  O     0.23093   0.07786   0.45999   0.01267  Uiso   1.00
O1939  O     0.22836   0.14239   0.47309   0.01267  Uiso   1.00
O1940  O     0.23067   0.20873   0.47147   0.01267  Uiso   1.00
O1941  O     0.16499   0.11850   0.40000   0.01267  Uiso   1.00
O1942  O     0.16280   0.21387   0.40131   0.01267  Uiso   1.00
O1943  O     0.20626   0.35663   0.57980   0.01267  Uiso   1.00
O1944  O     0.23171   0.36067   0.52430   0.01267  Uiso   1.00
O1945  O     0.26586   0.36732   0.48273   0.01267  Uiso   1.00
O1946  O     0.29727   0.36023   0.52813   0.01267  Uiso   1.00
O1947  O     0.29576   0.36596   0.59279   0.01267  Uiso   1.00
O1948  O     0.25219   0.37173   0.58630   0.01267  Uiso   1.00
O1949  O     0.21069   0.48202   0.57635   0.01267  Uiso   1.00
O1950  O     0.23008   0.47089   0.52027   0.01267  Uiso   1.00
O1951  O     0.26857   0.46688   0.49038   0.01267  Uiso   1.00
O1952  O     0.30409   0.47710   0.52687   0.01267  Uiso   1.00
O1953  O     0.29511   0.47177   0.59050   0.01267  Uiso   1.00
O1954  O     0.25322   0.46707   0.57471   0.01267  Uiso   1.00
O1955  O     0.22280   0.42088   0.56223   0.01267  Uiso   1.00
O1956  O     0.30541   0.41830   0.55513   0.01267  Uiso   1.00
O1957  O     0.19123   0.32962   0.63514   0.01267  Uiso   1.00
O1958  O     0.19855   0.39522   0.63079   0.01267  Uiso   1.00
O1959  O     0.20268   0.46026   0.63730   0.01267  Uiso   1.00
O1960  O     0.26982   0.32731   0.62639   0.01267  Uiso   1.00
O1961  O     0.27226   0.39181   0.64046   0.01267  Uiso   1.00
O1962  O     0.26622   0.45802   0.63702   0.01267  Uiso   1.00
O1963  O     0.00038   0.36897   0.56358   0.01267  Uiso   1.00
O1964  O     0.00217   0.46397   0.57004   0.01267  Uiso   1.00
O1965  O     0.28964   0.42036   0.41771   0.01267  Uiso   1.00
O1966  O     0.27009   0.42736   0.36066   0.01267  Uiso   1.00
O1967  O     0.23429   0.41887   0.65774   0.01267  Uiso   1.00
O1968  O     0.19657   0.42326   0.35631   0.01267  Uiso   1.00
O1969  O     0.20428   0.42216   0.42098   0.01267  Uiso   1.00
O1970  O     0.24654   0.41257   0.41266   0.01267  Uiso   1.00
O1971  O     0.28786   0.31051   0.41290   0.01267  Uiso   1.00
O1972  O     0.26889   0.31028   0.35576   0.01267  Uiso   1.00
O1973  O     0.23153   0.31756   0.65619   0.01267  Uiso   1.00
O1974  O     0.19710   0.30701   0.36216   0.01267  Uiso   1.00
O1975  O     0.20355   0.31355   0.42589   0.01267  Uiso   1.00
O1976  O     0.24484   0.32127   0.40812   0.01267  Uiso   1.00
O1977  O     0.27315   0.36725   0.38811   0.01267  Uiso   1.00
O1978  O     0.19433   0.36664   0.38871   0.01267  Uiso   1.00
O1979  O     0.30793   0.45545   0.46540   0.01267  Uiso   1.00
O1980  O     0.30558   0.38988   0.47132   0.01267  Uiso   1.00
O1981  O     0.29898   0.32484   0.47439   0.01267  Uiso   1.00
O1982  O     0.23205   0.45578   0.45707   0.01267  Uiso   1.00
O1983  O     0.22698   0.39021   0.46643   0.01267  Uiso   1.00
O1984  O     0.23355   0.32472   0.47130   0.01267  Uiso   1.00
O1985  O     0.16441   0.41377   0.39874   0.01267  Uiso   1.00
O1986  O     0.16389   0.32127   0.40222   0.01267  Uiso   1.00
O1987  O     0.12226   0.11226   0.40918   0.01267  Uiso   1.00
O1988  O     0.10127   0.11046   0.46582   0.01267  Uiso   1.00
O1989  O     0.06685   0.11589   0.50626   0.01267  Uiso   1.00
O1990  O     0.03258   0.10870   0.46670   0.01267  Uiso   1.00
O1991  O     0.03700   0.11560   0.40216   0.01267  Uiso   1.00
O1992  O     0.07937   0.12402   0.41173   0.01267  Uiso   1.00
O1993  O     0.12169   0.22726   0.41591   0.01267  Uiso   1.00
O1994  O     0.10192   0.22138   0.47220   0.01267  Uiso   1.00
O1995  O     0.06437   0.21682   0.50434   0.01267  Uiso   1.00
O1996  O     0.02966   0.22703   0.46627   0.01267  Uiso   1.00
O1997  O     0.03701   0.21971   0.40232   0.01267  Uiso   1.00
O1998  O     0.07882   0.21458   0.41741   0.01267  Uiso   1.00
O1999  O     0.10737   0.16816   0.43483   0.01267  Uiso   1.00
O2000  O     0.02665   0.16758   0.43960   0.01267  Uiso   1.00
O2001  O     0.14216   0.07989   0.36078   0.01267  Uiso   1.00
O2002  O     0.13802   0.14523   0.35684   0.01267  Uiso   1.00
O2003  O     0.13196   0.21037   0.35453   0.01267  Uiso   1.00
O2004  O     0.06482   0.07837   0.36953   0.01267  Uiso   1.00
O2005  O     0.06119   0.14248   0.35525   0.01267  Uiso   1.00
O2006  O     0.06606   0.20847   0.35489   0.01267  Uiso   1.00
O2007  O     0.33129   0.11894   0.42804   0.01267  Uiso   1.00
O2008  O     0.33025   0.21399   0.42517   0.01267  Uiso   1.00
O2009  O     0.04347   0.17222   0.57680   0.01267  Uiso   1.00
O2010  O     0.06519   0.17503   0.63268   0.01267  Uiso   1.00
O2011  O     0.09937   0.16889   0.34002   0.01267  Uiso   1.00
O2012  O     0.13337   0.17665   0.63310   0.01267  Uiso   1.00
O2013  O     0.12913   0.16930   0.56866   0.01267  Uiso   1.00
O2014  O     0.08657   0.16195   0.57802   0.01267  Uiso   1.00
O2015  O     0.04413   0.05870   0.58355   0.01267  Uiso   1.00
O2016  O     0.06489   0.06342   0.63925   0.01267  Uiso   1.00
O2017  O     0.10233   0.06871   0.33819   0.01267  Uiso   1.00
O2018  O     0.13661   0.05774   0.63281   0.01267  Uiso   1.00
O2019  O     0.12916   0.06575   0.56895   0.01267  Uiso   1.00
O2020  O     0.08719   0.06938   0.58361   0.01267  Uiso   1.00
O2021  O     0.05970   0.11694   0.60227   0.01267  Uiso   1.00
O2022  O     0.13895   0.11756   0.60682   0.01267  Uiso   1.00
O2023  O     0.02474   0.20544   0.52793   0.01267  Uiso   1.00
O2024  O     0.02852   0.14006   0.52365   0.01267  Uiso   1.00
O2025  O     0.03421   0.07477   0.52178   0.01267  Uiso   1.00
O2026  O     0.10185   0.20711   0.53597   0.01267  Uiso   1.00
O2027  O     0.10479   0.14296   0.52169   0.01267  Uiso   1.00
O2028  O     0.10038   0.07696   0.52136   0.01267  Uiso   1.00
O2029  O     0.16807   0.16553   0.59477   0.01267  Uiso   1.00
O2030  O     0.16916   0.07232   0.59174   0.01267  Uiso   1.00
O2031  O     0.14371   0.26833   0.37757   0.01267  Uiso   1.00
O2032  O     0.06494   0.26690   0.38307   0.01267  Uiso   1.00
O2033  O     0.09197   0.26700   0.51674   0.01267  Uiso   1.00
O2034  O     0.03708   0.26709   0.51605   0.01267  Uiso   1.00
O2035  O     0.02332   0.01637   0.54543   0.01267  Uiso   1.00
O2036  O     0.10218   0.01819   0.54846   0.01267  Uiso   1.00
O2037  O     0.07531   0.01822   0.35092   0.01267  Uiso   1.00
O2038  O     0.12962   0.01819   0.34992   0.01267  Uiso   1.00
O2039  O     0.18812   0.01866   0.61715   0.01267  Uiso   1.00
O2040  O     0.26709   0.01762   0.61115   0.01267  Uiso   1.00
O2041  O     0.24126   0.01665   0.47625   0.01267  Uiso   1.00
O2042  O     0.29590   0.01699   0.47730   0.01267  Uiso   1.00
O2043  O     0.30991   0.26730   0.44893   0.01267  Uiso   1.00
O2044  O     0.23276   0.26711   0.44195   0.01267  Uiso   1.00
O2045  O     0.25811   0.26682   0.64325   0.01267  Uiso   1.00
O2046  O     0.20354   0.26789   0.64451   0.01267  Uiso   1.00
Si2047 Si    0.14065   0.92119   0.38270   0.01267  Uiso   1.00
Si2048 Si    0.10168   0.90689   0.43153   0.01267  Uiso   1.00
Si2049 Si    0.09322   0.92554   0.50477   0.01267  Uiso   1.00
Si2050 Si    0.04058   0.92431   0.50446   0.01267  Uiso   1.00
Si2051 Si    0.02431   0.90704   0.43293   0.01267  Uiso   1.00
Si2052 Si    0.06098   0.92090   0.38320   0.01267  Uiso   1.00
Si2053 Si    0.14115   0.80725   0.38670   0.01267  Uiso   1.00
Si2054 Si    0.10174   0.82772   0.43435   0.01267  Uiso   1.00
Si2055 Si    0.09012   0.80554   0.50555   0.01267  Uiso   1.00
Si2056 Si    0.03896   0.80593   0.50587   0.01267  Uiso   1.00
Si2057 Si    0.02160   0.82789   0.43530   0.01267  Uiso   1.00
Si2058 Si    0.06038   0.80574   0.39096   0.01267  Uiso   1.00
Si2059 Si    0.02510   0.86423   0.55050   0.01267  Uiso   1.00
Si2060 Si    0.06414   0.87849   0.59940   0.01267  Uiso   1.00
Si2061 Si    0.07186   0.85933   0.33926   0.01267  Uiso   1.00
Si2062 Si    0.12411   0.86049   0.33848   0.01267  Uiso   1.00
Si2063 Si    0.14007   0.87867   0.60103   0.01267  Uiso   1.00
Si2064 Si    0.10434   0.86419   0.54970   0.01267  Uiso   1.00
Si2065 Si    0.02508   0.97730   0.55446   0.01267  Uiso   1.00
Si2066 Si    0.06517   0.95772   0.60180   0.01267  Uiso   1.00
Si2067 Si    0.07681   0.97974   0.33952   0.01267  Uiso   1.00
Si2068 Si    0.12784   0.97979   0.33817   0.01267  Uiso   1.00
Si2069 Si    0.14458   0.95789   0.60103   0.01267  Uiso   1.00
Si2070 Si    0.10582   0.97916   0.55634   0.01267  Uiso   1.00
Si2071 Si    0.19185   0.67124   0.61145   0.01267  Uiso   1.00
Si2072 Si    0.23082   0.65602   0.56220   0.01267  Uiso   1.00
Si2073 Si    0.23940   0.67512   0.48942   0.01267  Uiso   1.00
Si2074 Si    0.29210   0.67459   0.48971   0.01267  Uiso   1.00
Si2075 Si    0.30880   0.65628   0.56054   0.01267  Uiso   1.00
Si2076 Si    0.27167   0.66942   0.61023   0.01267  Uiso   1.00
Si2077 Si    0.19169   0.55729   0.60717   0.01267  Uiso   1.00
Si2078 Si    0.23087   0.57722   0.55898   0.01267  Uiso   1.00
Si2079 Si    0.24292   0.55516   0.48756   0.01267  Uiso   1.00
Si2080 Si    0.29397   0.55508   0.48980   0.01267  Uiso   1.00
Si2081 Si    0.31062   0.57696   0.56018   0.01267  Uiso   1.00
Si2082 Si    0.27139   0.55663   0.60422   0.01267  Uiso   1.00
Si2083 Si    0.30760   0.61333   0.44517   0.01267  Uiso   1.00
Si2084 Si    0.26860   0.62750   0.39645   0.01267  Uiso   1.00
Si2085 Si    0.25982   0.60990   0.65655   0.01267  Uiso   1.00
Si2086 Si    0.20714   0.61092   0.65704   0.01267  Uiso   1.00
Si2087 Si    0.19055   0.62818   0.39475   0.01267  Uiso   1.00
Si2088 Si    0.22754   0.61448   0.44428   0.01267  Uiso   1.00
Si2089 Si    0.30734   0.72839   0.43993   0.01267  Uiso   1.00
Si2090 Si    0.26864   0.70635   0.39217   0.01267  Uiso   1.00
Si2091 Si    0.25642   0.72814   0.65381   0.01267  Uiso   1.00
Si2092 Si    0.20533   0.72920   0.65595   0.01267  Uiso   1.00
Si2093 Si    0.18853   0.70739   0.39332   0.01267  Uiso   1.00
Si2094 Si    0.22799   0.72794   0.43651   0.01267  Uiso   1.00
Si2095 Si    0.18980   0.86263   0.61277   0.01267  Uiso   1.00
Si2096 Si    0.23952   0.86101   0.48699   0.01267  Uiso   1.00
Si2097 Si    0.29165   0.86063   0.48929   0.01267  Uiso   1.00
Si2098 Si    0.30804   0.87844   0.55988   0.01267  Uiso   1.00
Si2099 Si    0.27193   0.86452   0.61075   0.01267  Uiso   1.00
Si2100 Si    0.19298   0.98070   0.60587   0.01267  Uiso   1.00
Si2101 Si    0.22927   0.95916   0.55849   0.01267  Uiso   1.00
Si2102 Si    0.24295   0.97759   0.48624   0.01267  Uiso   1.00
Si2103 Si    0.29402   0.97888   0.49009   0.01267  Uiso   1.00
Si2104 Si    0.30995   0.95751   0.56062   0.01267  Uiso   1.00
Si2105 Si    0.27023   0.97842   0.60314   0.01267  Uiso   1.00
Si2106 Si    0.30847   0.92051   0.44562   0.01267  Uiso   1.00
Si2107 Si    0.26991   0.90671   0.39496   0.01267  Uiso   1.00
Si2108 Si    0.26076   0.92403   0.65673   0.01267  Uiso   1.00
Si2109 Si    0.20832   0.92479   0.65404   0.01267  Uiso   1.00
Si2110 Si    0.19006   0.90644   0.39128   0.01267  Uiso   1.00
Si2111 Si    0.22776   0.92013   0.43974   0.01267  Uiso   1.00
Si2112 Si    0.30653   0.80632   0.44077   0.01267  Uiso   1.00
Si2113 Si    0.26872   0.82776   0.39151   0.01267  Uiso   1.00
Si2114 Si    0.25718   0.80566   0.65370   0.01267  Uiso   1.00
Si2115 Si    0.20620   0.80555   0.65821   0.01267  Uiso   1.00
Si2116 Si    0.18970   0.82750   0.39476   0.01267  Uiso   1.00
Si2117 Si    0.22888   0.80657   0.43658   0.01267  Uiso   1.00
Si2118 Si    0.14157   0.61413   0.38181   0.01267  Uiso   1.00
Si2119 Si    0.10257   0.62878   0.43034   0.01267  Uiso   1.00
Si2120 Si    0.09323   0.61147   0.50379   0.01267  Uiso   1.00
Si2121 Si    0.04062   0.60984   0.50459   0.01267  Uiso   1.00
Si2122 Si    0.02350   0.62786   0.43427   0.01267  Uiso   1.00
Si2123 Si    0.06082   0.61511   0.38464   0.01267  Uiso   1.00
Si2124 Si    0.14013   0.72972   0.38734   0.01267  Uiso   1.00
Si2125 Si    0.10228   0.70766   0.43487   0.01267  Uiso   1.00
Si2126 Si    0.08992   0.72806   0.50709   0.01267  Uiso   1.00
Si2127 Si    0.03891   0.72898   0.50358   0.01267  Uiso   1.00
Si2128 Si    0.02252   0.70688   0.43338   0.01267  Uiso   1.00
Si2129 Si    0.06171   0.72748   0.38949   0.01267  Uiso   1.00
Si2130 Si    0.02466   0.67092   0.54866   0.01267  Uiso   1.00
Si2131 Si    0.06368   0.65642   0.59737   0.01267  Uiso   1.00
Si2132 Si    0.07301   0.67379   0.33740   0.01267  Uiso   1.00
Si2133 Si    0.12555   0.67511   0.33780   0.01267  Uiso   1.00
Si2134 Si    0.14244   0.65708   0.60093   0.01267  Uiso   1.00
Si2135 Si    0.10534   0.67019   0.55108   0.01267  Uiso   1.00
Si2136 Si    0.02604   0.55522   0.55464   0.01267  Uiso   1.00
Si2137 Si    0.06412   0.57725   0.60196   0.01267  Uiso   1.00
Si2138 Si    0.07682   0.55712   0.34093   0.01267  Uiso   1.00
Si2139 Si    0.12769   0.55621   0.33703   0.01267  Uiso   1.00
Si2140 Si    0.14348   0.57843   0.60011   0.01267  Uiso   1.00
Si2141 Si    0.10465   0.55753   0.55575   0.01267  Uiso   1.00
Al2142 Al    0.23030   0.87991   0.56176   0.01267  Uiso   1.00
O2143  O     0.12268   0.92143   0.41196   0.01267  Uiso   1.00
O2144  O     0.09968   0.92660   0.46615   0.01267  Uiso   1.00
O2145  O     0.06688   0.92470   0.50963   0.01267  Uiso   1.00
O2146  O     0.03454   0.92384   0.46581   0.01267  Uiso   1.00
O2147  O     0.03728   0.92097   0.40100   0.01267  Uiso   1.00
O2148  O     0.07969   0.91265   0.41023   0.01267  Uiso   1.00
O2149  O     0.12187   0.81232   0.41350   0.01267  Uiso   1.00
O2150  O     0.10224   0.81040   0.47035   0.01267  Uiso   1.00
O2151  O     0.06462   0.81678   0.50226   0.01267  Uiso   1.00
O2152  O     0.02672   0.81212   0.47117   0.01267  Uiso   1.00
O2153  O     0.03625   0.80949   0.40734   0.01267  Uiso   1.00
O2154  O     0.07854   0.81989   0.41661   0.01267  Uiso   1.00
O2155  O     0.10488   0.86745   0.43828   0.01267  Uiso   1.00
O2156  O     0.02737   0.86710   0.43552   0.01267  Uiso   1.00
O2157  O     0.14101   0.95708   0.36449   0.01267  Uiso   1.00
O2158  O     0.13502   0.89291   0.35541   0.01267  Uiso   1.00
O2159  O     0.13546   0.82703   0.35285   0.01267  Uiso   1.00
O2160  O     0.06476   0.95725   0.36711   0.01267  Uiso   1.00
O2161  O     0.06123   0.89288   0.35448   0.01267  Uiso   1.00
O2162  O     0.06160   0.82649   0.35670   0.01267  Uiso   1.00
O2163  O     0.33218   0.91696   0.42810   0.01267  Uiso   1.00
O2164  O     0.32925   0.82216   0.42683   0.01267  Uiso   1.00
O2165  O     0.04156   0.86781   0.58156   0.01267  Uiso   1.00
O2166  O     0.06659   0.85786   0.63356   0.01267  Uiso   1.00
O2167  O     0.09811   0.85982   0.34609   0.01267  Uiso   1.00
O2168  O     0.12820   0.86169   0.63251   0.01267  Uiso   1.00
O2169  O     0.12795   0.86629   0.56791   0.01267  Uiso   1.00
O2170  O     0.08487   0.86995   0.57604   0.01267  Uiso   1.00
O2171  O     0.04443   0.97099   0.58097   0.01267  Uiso   1.00
O2172  O     0.06490   0.97570   0.63743   0.01267  Uiso   1.00
O2173  O     0.10231   0.96804   0.33662   0.01267  Uiso   1.00
O2174  O     0.13855   0.97628   0.63525   0.01267  Uiso   1.00
O2175  O     0.13028   0.97348   0.57111   0.01267  Uiso   1.00
O2176  O     0.08796   0.96659   0.58320   0.01267  Uiso   1.00
O2177  O     0.06379   0.91792   0.60714   0.01267  Uiso   1.00
O2178  O     0.13901   0.91861   0.60456   0.01267  Uiso   1.00
O2179  O     0.02756   0.82739   0.53477   0.01267  Uiso   1.00
O2180  O     0.03060   0.89154   0.52222   0.01267  Uiso   1.00
O2181  O     0.03025   0.95768   0.52042   0.01267  Uiso   1.00
O2182  O     0.10224   0.82757   0.53344   0.01267  Uiso   1.00
O2183  O     0.10353   0.89220   0.52107   0.01267  Uiso   1.00
O2184  O     0.10311   0.95849   0.52229   0.01267  Uiso   1.00
O2185  O     0.16542   0.86661   0.59869   0.01267  Uiso   1.00
O2186  O     0.17040   0.96316   0.59327   0.01267  Uiso   1.00
O2187  O     0.21026   0.67053   0.58287   0.01267  Uiso   1.00
O2188  O     0.23261   0.67668   0.52797   0.01267  Uiso   1.00
O2189  O     0.26578   0.67257   0.48532   0.01267  Uiso   1.00
O2190  O     0.29869   0.67439   0.52822   0.01267  Uiso   1.00
O2191  O     0.29557   0.66848   0.59292   0.01267  Uiso   1.00
O2192  O     0.25320   0.66069   0.58298   0.01267  Uiso   1.00
O2193  O     0.21098   0.56143   0.58014   0.01267  Uiso   1.00
O2194  O     0.23112   0.55981   0.52308   0.01267  Uiso   1.00
O2195  O     0.26844   0.56689   0.49027   0.01267  Uiso   1.00
O2196  O     0.30397   0.55793   0.52655   0.01267  Uiso   1.00
O2197  O     0.29613   0.56251   0.59050   0.01267  Uiso   1.00
O2198  O     0.25417   0.57087   0.57714   0.01267  Uiso   1.00
O2199  O     0.22708   0.61690   0.55467   0.01267  Uiso   1.00
O2200  O     0.30633   0.61645   0.55583   0.01267  Uiso   1.00
O2201  O     0.19193   0.70749   0.62912   0.01267  Uiso   1.00
O2202  O     0.19618   0.64300   0.63923   0.01267  Uiso   1.00
O2203  O     0.19793   0.57705   0.64069   0.01267  Uiso   1.00
O2204  O     0.26788   0.70630   0.62519   0.01267  Uiso   1.00
O2205  O     0.27099   0.64246   0.63994   0.01267  Uiso   1.00
O2206  O     0.26834   0.57627   0.63880   0.01267  Uiso   1.00
O2207  O     0.00091   0.66664   0.56590   0.01267  Uiso   1.00
O2208  O     0.00301   0.57036   0.56796   0.01267  Uiso   1.00
O2209  O     0.28903   0.61223   0.41678   0.01267  Uiso   1.00
O2210  O     0.26670   0.60810   0.36164   0.01267  Uiso   1.00
O2211  O     0.23344   0.61299   0.65258   0.01267  Uiso   1.00
O2212  O     0.20055   0.61042   0.36222   0.01267  Uiso   1.00
O2213  O     0.20364   0.61539   0.42697   0.01267  Uiso   1.00
O2214  O     0.24607   0.62250   0.41681   0.01267  Uiso   1.00
O2215  O     0.28829   0.72361   0.41261   0.01267  Uiso   1.00
O2216  O     0.26846   0.72215   0.35552   0.01267  Uiso   1.00
O2217  O     0.23075   0.71723   0.65710   0.01267  Uiso   1.00
O2218  O     0.19456   0.72536   0.35875   0.01267  Uiso   1.00
O2219  O     0.20316   0.72310   0.42280   0.01267  Uiso   1.00
O2220  O     0.24511   0.71293   0.40972   0.01267  Uiso   1.00
O2221  O     0.27281   0.66672   0.38994   0.01267  Uiso   1.00
O2222  O     0.19336   0.66802   0.39042   0.01267  Uiso   1.00
O2223  O     0.30786   0.57820   0.46468   0.01267  Uiso   1.00
O2224  O     0.30310   0.64304   0.47130   0.01267  Uiso   1.00
O2225  O     0.30115   0.70885   0.47367   0.01267  Uiso   1.00
O2226  O     0.23093   0.57786   0.45999   0.01267  Uiso   1.00
O2227  O     0.22836   0.64239   0.47309   0.01267  Uiso   1.00
O2228  O     0.23067   0.70873   0.47147   0.01267  Uiso   1.00
O2229  O     0.16499   0.61850   0.40000   0.01267  Uiso   1.00
O2230  O     0.16280   0.71387   0.40131   0.01267  Uiso   1.00
O2231  O     0.20626   0.85663   0.57980   0.01267  Uiso   1.00
O2232  O     0.23171   0.86067   0.52430   0.01267  Uiso   1.00
O2233  O     0.26586   0.86732   0.48273   0.01267  Uiso   1.00
O2234  O     0.29727   0.86023   0.52813   0.01267  Uiso   1.00
O2235  O     0.29576   0.86596   0.59279   0.01267  Uiso   1.00
O2236  O     0.25219   0.87173   0.58630   0.01267  Uiso   1.00
O2237  O     0.21069   0.98202   0.57635   0.01267  Uiso   1.00
O2238  O     0.23008   0.97089   0.52027   0.01267  Uiso   1.00
O2239  O     0.26857   0.96688   0.49038   0.01267  Uiso   1.00
O2240  O     0.30409   0.97710   0.52687   0.01267  Uiso   1.00
O2241  O     0.29511   0.97177   0.59050   0.01267  Uiso   1.00
O2242  O     0.25322   0.96707   0.57471   0.01267  Uiso   1.00
O2243  O     0.22280   0.92088   0.56223   0.01267  Uiso   1.00
O2244  O     0.30541   0.91830   0.55513   0.01267  Uiso   1.00
O2245  O     0.19123   0.82962   0.63514   0.01267  Uiso   1.00
O2246  O     0.19855   0.89522   0.63079   0.01267  Uiso   1.00
O2247  O     0.20268   0.96026   0.63730   0.01267  Uiso   1.00
O2248  O     0.26982   0.82731   0.62639   0.01267  Uiso   1.00
O2249  O     0.27226   0.89181   0.64046   0.01267  Uiso   1.00
O2250  O     0.26622   0.95802   0.63702   0.01267  Uiso   1.00
O2251  O     0.00038   0.86897   0.56358   0.01267  Uiso   1.00
O2252  O     0.00217   0.96397   0.57004   0.01267  Uiso   1.00
O2253  O     0.28964   0.92036   0.41771   0.01267  Uiso   1.00
O2254  O     0.27009   0.92736   0.36066   0.01267  Uiso   1.00
O2255  O     0.23429   0.91887   0.65774   0.01267  Uiso   1.00
O2256  O     0.19657   0.92326   0.35631   0.01267  Uiso   1.00
O2257  O     0.20428   0.92216   0.42098   0.01267  Uiso   1.00
O2258  O     0.24654   0.91257   0.41266   0.01267  Uiso   1.00
O2259  O     0.28786   0.81051   0.41290   0.01267  Uiso   1.00
O2260  O     0.26889   0.81028   0.35576   0.01267  Uiso   1.00
O2261  O     0.23153   0.81756   0.65619   0.01267  Uiso   1.00
O2262  O     0.19710   0.80701   0.36216   0.01267  Uiso   1.00
O2263  O     0.20355   0.81355   0.42589   0.01267  Uiso   1.00
O2264  O     0.24484   0.82127   0.40812   0.01267  Uiso   1.00
O2265  O     0.27315   0.86725   0.38811   0.01267  Uiso   1.00
O2266  O     0.19433   0.86664   0.38871   0.01267  Uiso   1.00
O2267  O     0.30793   0.95545   0.46540   0.01267  Uiso   1.00
O2268  O     0.30558   0.88988   0.47132   0.01267  Uiso   1.00
O2269  O     0.29898   0.82484   0.47439   0.01267  Uiso   1.00
O2270  O     0.23205   0.95578   0.45707   0.01267  Uiso   1.00
O2271  O     0.22698   0.89021   0.46643   0.01267  Uiso   1.00
O2272  O     0.23355   0.82472   0.47130   0.01267  Uiso   1.00
O2273  O     0.16441   0.91377   0.39874   0.01267  Uiso   1.00
O2274  O     0.16389   0.82127   0.40222   0.01267  Uiso   1.00
O2275  O     0.12226   0.61226   0.40918   0.01267  Uiso   1.00
O2276  O     0.10127   0.61046   0.46582   0.01267  Uiso   1.00
O2277  O     0.06685   0.61589   0.50626   0.01267  Uiso   1.00
O2278  O     0.03258   0.60870   0.46670   0.01267  Uiso   1.00
O2279  O     0.03700   0.61560   0.40216   0.01267  Uiso   1.00
O2280  O     0.07937   0.62402   0.41173   0.01267  Uiso   1.00
O2281  O     0.12169   0.72726   0.41591   0.01267  Uiso   1.00
O2282  O     0.10192   0.72138   0.47220   0.01267  Uiso   1.00
O2283  O     0.06437   0.71682   0.50434   0.01267  Uiso   1.00
O2284  O     0.02966   0.72703   0.46627   0.01267  Uiso   1.00
O2285  O     0.03701   0.71971   0.40232   0.01267  Uiso   1.00
O2286  O     0.07882   0.71458   0.41741   0.01267  Uiso   1.00
O2287  O     0.10737   0.66816   0.43483   0.01267  Uiso   1.00
O2288  O     0.02665   0.66758   0.43960   0.01267  Uiso   1.00
O2289  O     0.14216   0.57989   0.36078   0.01267  Uiso   1.00
O2290  O     0.13802   0.64523   0.35684   0.01267  Uiso   1.00
O2291  O     0.13196   0.71037   0.35453   0.01267  Uiso   1.00
O2292  O     0.06482   0.57837   0.36953   0.01267  Uiso   1.00
O2293  O     0.06119   0.64248   0.35525   0.01267  Uiso   1.00
O2294  O     0.06606   0.70847   0.35489   0.01267  Uiso   1.00
O2295  O     0.33129   0.61894   0.42804   0.01267  Uiso   1.00
O2296  O     0.33025   0.71399   0.42517   0.01267  Uiso   1.00
O2297  O     0.04347   0.67222   0.57680   0.01267  Uiso   1.00
O2298  O     0.06519   0.67503   0.63268   0.01267  Uiso   1.00
O2299  O     0.09937   0.66889   0.34002   0.01267  Uiso   1.00
O2300  O     0.13337   0.67665   0.63310   0.01267  Uiso   1.00
O2301  O     0.12913   0.66930   0.56866   0.01267  Uiso   1.00
O2302  O     0.08657   0.66195   0.57802   0.01267  Uiso   1.00
O2303  O     0.04413   0.55870   0.58355   0.01267  Uiso   1.00
O2304  O     0.06489   0.56342   0.63925   0.01267  Uiso   1.00
O2305  O     0.10233   0.56871   0.33819   0.01267  Uiso   1.00
O2306  O     0.13661   0.55774   0.63281   0.01267  Uiso   1.00
O2307  O     0.12916   0.56575   0.56895   0.01267  Uiso   1.00
O2308  O     0.08719   0.56938   0.58361   0.01267  Uiso   1.00
O2309  O     0.05970   0.61694   0.60227   0.01267  Uiso   1.00
O2310  O     0.13895   0.61756   0.60682   0.01267  Uiso   1.00
O2311  O     0.02474   0.70544   0.52793   0.01267  Uiso   1.00
O2312  O     0.02852   0.64006   0.52365   0.01267  Uiso   1.00
O2313  O     0.03421   0.57477   0.52178   0.01267  Uiso   1.00
O2314  O     0.10185   0.70711   0.53597   0.01267  Uiso   1.00
O2315  O     0.10479   0.64296   0.52169   0.01267  Uiso   1.00
O2316  O     0.10038   0.57696   0.52136   0.01267  Uiso   1.00
O2317  O     0.16807   0.66553   0.59477   0.01267  Uiso   1.00
O2318  O     0.16916   0.57232   0.59174   0.01267  Uiso   1.00
O2319  O     0.14371   0.76833   0.37757   0.01267  Uiso   1.00
O2320  O     0.06494   0.76690   0.38307   0.01267  Uiso   1.00
O2321  O     0.09197   0.76700   0.51674   0.01267  Uiso   1.00
O2322  O     0.03708   0.76709   0.51605   0.01267  Uiso   1.00
O2323  O     0.02332   0.51637   0.54543   0.01267  Uiso   1.00
O2324  O     0.10218   0.51819   0.54846   0.01267  Uiso   1.00
O2325  O     0.07531   0.51822   0.35092   0.01267  Uiso   1.00
O2326  O     0.12962   0.51819   0.34992   0.01267  Uiso   1.00
O2327  O     0.18812   0.51866   0.61715   0.01267  Uiso   1.00
O2328  O     0.26709   0.51762   0.61115   0.01267  Uiso   1.00
O2329  O     0.24126   0.51665   0.47625   0.01267  Uiso   1.00
O2330  O     0.29590   0.51699   0.47730   0.01267  Uiso   1.00
O2331  O     0.30991   0.76730   0.44893   0.01267  Uiso   1.00
O2332  O     0.23276   0.76711   0.44195   0.01267  Uiso   1.00
O2333  O     0.25811   0.76682   0.64325   0.01267  Uiso   1.00
O2334  O     0.20354   0.76789   0.64451   0.01267  Uiso   1.00
H2335  H     0.20363   0.83470   0.56866   0.01267  Uiso   1.00
H2336  H     0.13934   0.77145   0.54993   0.01267  Uiso   1.00
H2337  H     0.17058   0.76659   0.59497   0.01267  Uiso   1.00
H2338  H     0.15543   0.79076   0.49261   0.01267  Uiso   1.00
H2339  H     0.19837   0.80035   0.49608   0.01267  Uiso   1.00
C2340  C     0.16527   0.78716   0.51464   0.01267  Uiso   1.00
C2341  C     0.18742   0.79220   0.51547   0.01267  Uiso   1.00
C2342  C     0.15658   0.77679   0.54561   0.01267  Uiso   1.00
C2343  C     0.17227   0.77421   0.56950   0.01267  Uiso   1.00
S2344  S     0.19783   0.78357   0.55392   0.01267  Uiso   1.00
Si2345 Si    0.47398   0.42119   0.38270   0.01267  Uiso   1.00
Si2346 Si    0.43501   0.40689   0.43153   0.01267  Uiso   1.00
Si2347 Si    0.42655   0.42554   0.50477   0.01267  Uiso   1.00
Si2348 Si    0.37391   0.42431   0.50446   0.01267  Uiso   1.00
Si2349 Si    0.35765   0.40704   0.43293   0.01267  Uiso   1.00
Si2350 Si    0.39432   0.42090   0.38320   0.01267  Uiso   1.00
Si2351 Si    0.47448   0.30725   0.38670   0.01267  Uiso   1.00
Si2352 Si    0.43508   0.32772   0.43435   0.01267  Uiso   1.00
Si2353 Si    0.42345   0.30554   0.50555   0.01267  Uiso   1.00
Si2354 Si    0.37229   0.30593   0.50587   0.01267  Uiso   1.00
Si2355 Si    0.35493   0.32789   0.43530   0.01267  Uiso   1.00
Si2356 Si    0.39371   0.30574   0.39096   0.01267  Uiso   1.00
Si2357 Si    0.35843   0.36423   0.55050   0.01267  Uiso   1.00
Si2358 Si    0.39747   0.37849   0.59940   0.01267  Uiso   1.00
Si2359 Si    0.40519   0.35933   0.33926   0.01267  Uiso   1.00
Si2360 Si    0.45744   0.36049   0.33848   0.01267  Uiso   1.00
Si2361 Si    0.47340   0.37867   0.60103   0.01267  Uiso   1.00
Si2362 Si    0.43768   0.36419   0.54970   0.01267  Uiso   1.00
Si2363 Si    0.35841   0.47730   0.55446   0.01267  Uiso   1.00
Si2364 Si    0.39850   0.45772   0.60180   0.01267  Uiso   1.00
Si2365 Si    0.41014   0.47974   0.33952   0.01267  Uiso   1.00
Si2366 Si    0.46117   0.47979   0.33817   0.01267  Uiso   1.00
Si2367 Si    0.47791   0.45789   0.60103   0.01267  Uiso   1.00
Si2368 Si    0.43915   0.47916   0.55634   0.01267  Uiso   1.00
Si2369 Si    0.52519   0.17124   0.61145   0.01267  Uiso   1.00
Si2370 Si    0.56416   0.15602   0.56220   0.01267  Uiso   1.00
Si2371 Si    0.57273   0.17512   0.48942   0.01267  Uiso   1.00
Si2372 Si    0.62544   0.17459   0.48971   0.01267  Uiso   1.00
Si2373 Si    0.64213   0.15628   0.56054   0.01267  Uiso   1.00
Si2374 Si    0.60501   0.16942   0.61023   0.01267  Uiso   1.00
Si2375 Si    0.52503   0.05729   0.60717   0.01267  Uiso   1.00
Si2376 Si    0.56420   0.07722   0.55898   0.01267  Uiso   1.00
Si2377 Si    0.57626   0.05516   0.48756   0.01267  Uiso   1.00
Si2378 Si    0.62731   0.05508   0.48980   0.01267  Uiso   1.00
Si2379 Si    0.64396   0.07696   0.56018   0.01267  Uiso   1.00
Si2380 Si    0.60472   0.05663   0.60422   0.01267  Uiso   1.00
Si2381 Si    0.64093   0.11333   0.44517   0.01267  Uiso   1.00
Si2382 Si    0.60194   0.12750   0.39645   0.01267  Uiso   1.00
Si2383 Si    0.59316   0.10990   0.65655   0.01267  Uiso   1.00
Si2384 Si    0.54047   0.11092   0.65704   0.01267  Uiso   1.00
Si2385 Si    0.52388   0.12818   0.39475   0.01267  Uiso   1.00
Si2386 Si    0.56088   0.11448   0.44428   0.01267  Uiso   1.00
Si2387 Si    0.64068   0.22839   0.43993   0.01267  Uiso   1.00
Si2388 Si    0.60197   0.20635   0.39217   0.01267  Uiso   1.00
Si2389 Si    0.58975   0.22814   0.65381   0.01267  Uiso   1.00
Si2390 Si    0.53867   0.22920   0.65595   0.01267  Uiso   1.00
Si2391 Si    0.52186   0.20739   0.39332   0.01267  Uiso   1.00
Si2392 Si    0.56132   0.22794   0.43651   0.01267  Uiso   1.00
Si2393 Si    0.52314   0.36263   0.61277   0.01267  Uiso   1.00
Si2394 Si    0.57286   0.36101   0.48699   0.01267  Uiso   1.00
Si2395 Si    0.62499   0.36063   0.48929   0.01267  Uiso   1.00
Si2396 Si    0.64137   0.37844   0.55988   0.01267  Uiso   1.00
Si2397 Si    0.60527   0.36452   0.61075   0.01267  Uiso   1.00
Si2398 Si    0.52631   0.48070   0.60587   0.01267  Uiso   1.00
Si2399 Si    0.56260   0.45916   0.55849   0.01267  Uiso   1.00
Si2400 Si    0.57629   0.47759   0.48624   0.01267  Uiso   1.00
Si2401 Si    0.62736   0.47888   0.49009   0.01267  Uiso   1.00
Si2402 Si    0.64328   0.45751   0.56062   0.01267  Uiso   1.00
Si2403 Si    0.60356   0.47842   0.60314   0.01267  Uiso   1.00
Si2404 Si    0.64180   0.42051   0.44562   0.01267  Uiso   1.00
Si2405 Si    0.60324   0.40671   0.39496   0.01267  Uiso   1.00
Si2406 Si    0.59409   0.42403   0.65673   0.01267  Uiso   1.00
Si2407 Si    0.54166   0.42479   0.65404   0.01267  Uiso   1.00
Si2408 Si    0.52339   0.40644   0.39128   0.01267  Uiso   1.00
Si2409 Si    0.56109   0.42013   0.43974   0.01267  Uiso   1.00
Si2410 Si    0.63986   0.30632   0.44077   0.01267  Uiso   1.00
Si2411 Si    0.60205   0.32776   0.39151   0.01267  Uiso   1.00
Si2412 Si    0.59051   0.30566   0.65370   0.01267  Uiso   1.00
Si2413 Si    0.53953   0.30555   0.65821   0.01267  Uiso   1.00
Si2414 Si    0.52303   0.32750   0.39476   0.01267  Uiso   1.00
Si2415 Si    0.56221   0.30657   0.43658   0.01267  Uiso   1.00
Si2416 Si    0.47491   0.11413   0.38181   0.01267  Uiso   1.00
Si2417 Si    0.43590   0.12878   0.43034   0.01267  Uiso   1.00
Si2418 Si    0.42656   0.11147   0.50379   0.01267  Uiso   1.00
Si2419 Si    0.37395   0.10984   0.50459   0.01267  Uiso   1.00
Si2420 Si    0.35683   0.12786   0.43427   0.01267  Uiso   1.00
Si2421 Si    0.39416   0.11511   0.38464   0.01267  Uiso   1.00
Si2422 Si    0.47347   0.22972   0.38734   0.01267  Uiso   1.00
Si2423 Si    0.43562   0.20766   0.43487   0.01267  Uiso   1.00
Si2424 Si    0.42325   0.22806   0.50709   0.01267  Uiso   1.00
Si2425 Si    0.37224   0.22898   0.50358   0.01267  Uiso   1.00
Si2426 Si    0.35585   0.20688   0.43338   0.01267  Uiso   1.00
Si2427 Si    0.39504   0.22748   0.38949   0.01267  Uiso   1.00
Si2428 Si    0.35800   0.17092   0.54866   0.01267  Uiso   1.00
Si2429 Si    0.39701   0.15642   0.59737   0.01267  Uiso   1.00
Si2430 Si    0.40634   0.17379   0.33740   0.01267  Uiso   1.00
Si2431 Si    0.45889   0.17511   0.33780   0.01267  Uiso   1.00
Si2432 Si    0.47577   0.15708   0.60093   0.01267  Uiso   1.00
Si2433 Si    0.43867   0.17019   0.55108   0.01267  Uiso   1.00
Si2434 Si    0.35937   0.05522   0.55464   0.01267  Uiso   1.00
Si2435 Si    0.39745   0.07725   0.60196   0.01267  Uiso   1.00
Si2436 Si    0.41015   0.05712   0.34093   0.01267  Uiso   1.00
Si2437 Si    0.46102   0.05621   0.33703   0.01267  Uiso   1.00
Si2438 Si    0.47682   0.07843   0.60011   0.01267  Uiso   1.00
Si2439 Si    0.43798   0.05753   0.55575   0.01267  Uiso   1.00
Al2440 Al    0.56363   0.37991   0.56176   0.01267  Uiso   1.00
O2441  O     0.45602   0.42143   0.41196   0.01267  Uiso   1.00
O2442  O     0.43302   0.42660   0.46615   0.01267  Uiso   1.00
O2443  O     0.40021   0.42470   0.50963   0.01267  Uiso   1.00
O2444  O     0.36787   0.42384   0.46581   0.01267  Uiso   1.00
O2445  O     0.37062   0.42097   0.40100   0.01267  Uiso   1.00
O2446  O     0.41302   0.41265   0.41023   0.01267  Uiso   1.00
O2447  O     0.45520   0.31232   0.41350   0.01267  Uiso   1.00
O2448  O     0.43557   0.31040   0.47035   0.01267  Uiso   1.00
O2449  O     0.39795   0.31678   0.50226   0.01267  Uiso   1.00
O2450  O     0.36005   0.31212   0.47117   0.01267  Uiso   1.00
O2451  O     0.36958   0.30949   0.40734   0.01267  Uiso   1.00
O2452  O     0.41187   0.31989   0.41661   0.01267  Uiso   1.00
O2453  O     0.43822   0.36745   0.43828   0.01267  Uiso   1.00
O2454  O     0.36071   0.36710   0.43552   0.01267  Uiso   1.00
O2455  O     0.47434   0.45708   0.36449   0.01267  Uiso   1.00
O2456  O     0.46836   0.39291   0.35541   0.01267  Uiso   1.00
O2457  O     0.46879   0.32703   0.35285   0.01267  Uiso   1.00
O2458  O     0.39810   0.45725   0.36711   0.01267  Uiso   1.00
O2459  O     0.39456   0.39288   0.35448   0.01267  Uiso   1.00
O2460  O     0.39493   0.32649   0.35670   0.01267  Uiso   1.00
O2461  O     0.66552   0.41696   0.42810   0.01267  Uiso   1.00
O2462  O     0.66258   0.32216   0.42683   0.01267  Uiso   1.00
O2463  O     0.37490   0.36781   0.58156   0.01267  Uiso   1.00
O2464  O     0.39992   0.35786   0.63356   0.01267  Uiso   1.00
O2465  O     0.43144   0.35982   0.34609   0.01267  Uiso   1.00
O2466  O     0.46153   0.36169   0.63251   0.01267  Uiso   1.00
O2467  O     0.46129   0.36629   0.56791   0.01267  Uiso   1.00
O2468  O     0.41820   0.36995   0.57604   0.01267  Uiso   1.00
O2469  O     0.37777   0.47099   0.58097   0.01267  Uiso   1.00
O2470  O     0.39823   0.47570   0.63743   0.01267  Uiso   1.00
O2471  O     0.43565   0.46804   0.33662   0.01267  Uiso   1.00
O2472  O     0.47188   0.47628   0.63525   0.01267  Uiso   1.00
O2473  O     0.46362   0.47348   0.57111   0.01267  Uiso   1.00
O2474  O     0.42129   0.46659   0.58320   0.01267  Uiso   1.00
O2475  O     0.39712   0.41792   0.60714   0.01267  Uiso   1.00
O2476  O     0.47235   0.41861   0.60456   0.01267  Uiso   1.00
O2477  O     0.36089   0.32739   0.53477   0.01267  Uiso   1.00
O2478  O     0.36393   0.39154   0.52222   0.01267  Uiso   1.00
O2479  O     0.36359   0.45768   0.52042   0.01267  Uiso   1.00
O2480  O     0.43558   0.32757   0.53344   0.01267  Uiso   1.00
O2481  O     0.43686   0.39220   0.52107   0.01267  Uiso   1.00
O2482  O     0.43645   0.45849   0.52229   0.01267  Uiso   1.00
O2483  O     0.49875   0.36661   0.59869   0.01267  Uiso   1.00
O2484  O     0.50374   0.46316   0.59327   0.01267  Uiso   1.00
O2485  O     0.54360   0.17053   0.58287   0.01267  Uiso   1.00
O2486  O     0.56594   0.17668   0.52797   0.01267  Uiso   1.00
O2487  O     0.59912   0.17257   0.48532   0.01267  Uiso   1.00
O2488  O     0.63202   0.17439   0.52822   0.01267  Uiso   1.00
O2489  O     0.62891   0.16848   0.59292   0.01267  Uiso   1.00
O2490  O     0.58654   0.16069   0.58298   0.01267  Uiso   1.00
O2491  O     0.54431   0.06143   0.58014   0.01267  Uiso   1.00
O2492  O     0.56445   0.05981   0.52308   0.01267  Uiso   1.00
O2493  O     0.60178   0.06689   0.49027   0.01267  Uiso   1.00
O2494  O     0.63730   0.05793   0.52655   0.01267  Uiso   1.00
O2495  O     0.62946   0.06251   0.59050   0.01267  Uiso   1.00
O2496  O     0.58751   0.07087   0.57714   0.01267  Uiso   1.00
O2497  O     0.56041   0.11690   0.55467   0.01267  Uiso   1.00
O2498  O     0.63966   0.11645   0.55583   0.01267  Uiso   1.00
O2499  O     0.52527   0.20749   0.62912   0.01267  Uiso   1.00
O2500  O     0.52951   0.14300   0.63923   0.01267  Uiso   1.00
O2501  O     0.53126   0.07705   0.64069   0.01267  Uiso   1.00
O2502  O     0.60122   0.20630   0.62519   0.01267  Uiso   1.00
O2503  O     0.60432   0.14246   0.63994   0.01267  Uiso   1.00
O2504  O     0.60168   0.07627   0.63880   0.01267  Uiso   1.00
O2505  O     0.33424   0.16664   0.56590   0.01267  Uiso   1.00
O2506  O     0.33634   0.07036   0.56796   0.01267  Uiso   1.00
O2507  O     0.62236   0.11223   0.41678   0.01267  Uiso   1.00
O2508  O     0.60004   0.10810   0.36164   0.01267  Uiso   1.00
O2509  O     0.56677   0.11299   0.65258   0.01267  Uiso   1.00
O2510  O     0.53389   0.11042   0.36222   0.01267  Uiso   1.00
O2511  O     0.53697   0.11539   0.42697   0.01267  Uiso   1.00
O2512  O     0.57940   0.12250   0.41681   0.01267  Uiso   1.00
O2513  O     0.62162   0.22361   0.41261   0.01267  Uiso   1.00
O2514  O     0.60180   0.22215   0.35552   0.01267  Uiso   1.00
O2515  O     0.56408   0.21723   0.65710   0.01267  Uiso   1.00
O2516  O     0.52789   0.22536   0.35875   0.01267  Uiso   1.00
O2517  O     0.53650   0.22310   0.42280   0.01267  Uiso   1.00
O2518  O     0.57844   0.21293   0.40972   0.01267  Uiso   1.00
O2519  O     0.60614   0.16672   0.38994   0.01267  Uiso   1.00
O2520  O     0.52669   0.16802   0.39042   0.01267  Uiso   1.00
O2521  O     0.64119   0.07820   0.46468   0.01267  Uiso   1.00
O2522  O     0.63644   0.14304   0.47130   0.01267  Uiso   1.00
O2523  O     0.63448   0.20885   0.47367   0.01267  Uiso   1.00
O2524  O     0.56426   0.07786   0.45999   0.01267  Uiso   1.00
O2525  O     0.56170   0.14239   0.47309   0.01267  Uiso   1.00
O2526  O     0.56401   0.20873   0.47147   0.01267  Uiso   1.00
O2527  O     0.49832   0.11850   0.40000   0.01267  Uiso   1.00
O2528  O     0.49614   0.21387   0.40131   0.01267  Uiso   1.00
O2529  O     0.53960   0.35663   0.57980   0.01267  Uiso   1.00
O2530  O     0.56504   0.36067   0.52430   0.01267  Uiso   1.00
O2531  O     0.59919   0.36732   0.48273   0.01267  Uiso   1.00
O2532  O     0.63060   0.36023   0.52813   0.01267  Uiso   1.00
O2533  O     0.62910   0.36596   0.59279   0.01267  Uiso   1.00
O2534  O     0.58552   0.37173   0.58630   0.01267  Uiso   1.00
O2535  O     0.54403   0.48202   0.57635   0.01267  Uiso   1.00
O2536  O     0.56341   0.47089   0.52027   0.01267  Uiso   1.00
O2537  O     0.60191   0.46688   0.49038   0.01267  Uiso   1.00
O2538  O     0.63743   0.47710   0.52687   0.01267  Uiso   1.00
O2539  O     0.62844   0.47177   0.59050   0.01267  Uiso   1.00
O2540  O     0.58655   0.46707   0.57471   0.01267  Uiso   1.00
O2541  O     0.55613   0.42088   0.56223   0.01267  Uiso   1.00
O2542  O     0.63874   0.41830   0.55513   0.01267  Uiso   1.00
O2543  O     0.52456   0.32962   0.63514   0.01267  Uiso   1.00
O2544  O     0.53188   0.39522   0.63079   0.01267  Uiso   1.00
O2545  O     0.53601   0.46026   0.63730   0.01267  Uiso   1.00
O2546  O     0.60315   0.32731   0.62639   0.01267  Uiso   1.00
O2547  O     0.60559   0.39181   0.64046   0.01267  Uiso   1.00
O2548  O     0.59955   0.45802   0.63702   0.01267  Uiso   1.00
O2549  O     0.33371   0.36897   0.56358   0.01267  Uiso   1.00
O2550  O     0.33550   0.46397   0.57004   0.01267  Uiso   1.00
O2551  O     0.62298   0.42036   0.41771   0.01267  Uiso   1.00
O2552  O     0.60342   0.42736   0.36066   0.01267  Uiso   1.00
O2553  O     0.56762   0.41887   0.65774   0.01267  Uiso   1.00
O2554  O     0.52991   0.42326   0.35631   0.01267  Uiso   1.00
O2555  O     0.53762   0.42216   0.42098   0.01267  Uiso   1.00
O2556  O     0.57987   0.41257   0.41266   0.01267  Uiso   1.00
O2557  O     0.62120   0.31051   0.41290   0.01267  Uiso   1.00
O2558  O     0.60223   0.31028   0.35576   0.01267  Uiso   1.00
O2559  O     0.56486   0.31756   0.65619   0.01267  Uiso   1.00
O2560  O     0.53043   0.30701   0.36216   0.01267  Uiso   1.00
O2561  O     0.53689   0.31355   0.42589   0.01267  Uiso   1.00
O2562  O     0.57817   0.32127   0.40812   0.01267  Uiso   1.00
O2563  O     0.60648   0.36725   0.38811   0.01267  Uiso   1.00
O2564  O     0.52766   0.36664   0.38871   0.01267  Uiso   1.00
O2565  O     0.64126   0.45545   0.46540   0.01267  Uiso   1.00
O2566  O     0.63892   0.38988   0.47132   0.01267  Uiso   1.00
O2567  O     0.63232   0.32484   0.47439   0.01267  Uiso   1.00
O2568  O     0.56538   0.45578   0.45707   0.01267  Uiso   1.00
O2569  O     0.56032   0.39021   0.46643   0.01267  Uiso   1.00
O2570  O     0.56689   0.32472   0.47130   0.01267  Uiso   1.00
O2571  O     0.49774   0.41377   0.39874   0.01267  Uiso   1.00
O2572  O     0.49722   0.32127   0.40222   0.01267  Uiso   1.00
O2573  O     0.45559   0.11226   0.40918   0.01267  Uiso   1.00
O2574  O     0.43460   0.11046   0.46582   0.01267  Uiso   1.00
O2575  O     0.40018   0.11589   0.50626   0.01267  Uiso   1.00
O2576  O     0.36591   0.10870   0.46670   0.01267  Uiso   1.00
O2577  O     0.37033   0.11560   0.40216   0.01267  Uiso   1.00
O2578  O     0.41271   0.12402   0.41173   0.01267  Uiso   1.00
O2579  O     0.45502   0.22726   0.41591   0.01267  Uiso   1.00
O2580  O     0.43525   0.22138   0.47220   0.01267  Uiso   1.00
O2581  O     0.39771   0.21682   0.50434   0.01267  Uiso   1.00
O2582  O     0.36299   0.22703   0.46627   0.01267  Uiso   1.00
O2583  O     0.37035   0.21971   0.40232   0.01267  Uiso   1.00
O2584  O     0.41215   0.21458   0.41741   0.01267  Uiso   1.00
O2585  O     0.44070   0.16816   0.43483   0.01267  Uiso   1.00
O2586  O     0.35999   0.16758   0.43960   0.01267  Uiso   1.00
O2587  O     0.47549   0.07989   0.36078   0.01267  Uiso   1.00
O2588  O     0.47135   0.14523   0.35684   0.01267  Uiso   1.00
O2589  O     0.46530   0.21037   0.35453   0.01267  Uiso   1.00
O2590  O     0.39815   0.07837   0.36953   0.01267  Uiso   1.00
O2591  O     0.39453   0.14248   0.35525   0.01267  Uiso   1.00
O2592  O     0.39939   0.20847   0.35489   0.01267  Uiso   1.00
O2593  O     0.66462   0.11894   0.42804   0.01267  Uiso   1.00
O2594  O     0.66359   0.21399   0.42517   0.01267  Uiso   1.00
O2595  O     0.37681   0.17222   0.57680   0.01267  Uiso   1.00
O2596  O     0.39852   0.17503   0.63268   0.01267  Uiso   1.00
O2597  O     0.43271   0.16889   0.34002   0.01267  Uiso   1.00
O2598  O     0.46670   0.17665   0.63310   0.01267  Uiso   1.00
O2599  O     0.46246   0.16930   0.56866   0.01267  Uiso   1.00
O2600  O     0.41990   0.16195   0.57802   0.01267  Uiso   1.00
O2601  O     0.37747   0.05870   0.58355   0.01267  Uiso   1.00
O2602  O     0.39823   0.06342   0.63925   0.01267  Uiso   1.00
O2603  O     0.43566   0.06871   0.33819   0.01267  Uiso   1.00
O2604  O     0.46995   0.05774   0.63281   0.01267  Uiso   1.00
O2605  O     0.46250   0.06575   0.56895   0.01267  Uiso   1.00
O2606  O     0.42052   0.06938   0.58361   0.01267  Uiso   1.00
O2607  O     0.39303   0.11694   0.60227   0.01267  Uiso   1.00
O2608  O     0.47228   0.11756   0.60682   0.01267  Uiso   1.00
O2609  O     0.35807   0.20544   0.52793   0.01267  Uiso   1.00
O2610  O     0.36186   0.14006   0.52365   0.01267  Uiso   1.00
O2611  O     0.36755   0.07477   0.52178   0.01267  Uiso   1.00
O2612  O     0.43518   0.20711   0.53597   0.01267  Uiso   1.00
O2613  O     0.43813   0.14296   0.52169   0.01267  Uiso   1.00
O2614  O     0.43371   0.07696   0.52136   0.01267  Uiso   1.00
O2615  O     0.50141   0.16553   0.59477   0.01267  Uiso   1.00
O2616  O     0.50249   0.07232   0.59174   0.01267  Uiso   1.00
O2617  O     0.47704   0.26833   0.37757   0.01267  Uiso   1.00
O2618  O     0.39827   0.26690   0.38307   0.01267  Uiso   1.00
O2619  O     0.42530   0.26700   0.51674   0.01267  Uiso   1.00
O2620  O     0.37041   0.26709   0.51605   0.01267  Uiso   1.00
O2621  O     0.35666   0.01637   0.54543   0.01267  Uiso   1.00
O2622  O     0.43552   0.01819   0.54846   0.01267  Uiso   1.00
O2623  O     0.40865   0.01822   0.35092   0.01267  Uiso   1.00
O2624  O     0.46296   0.01819   0.34992   0.01267  Uiso   1.00
O2625  O     0.52145   0.01866   0.61715   0.01267  Uiso   1.00
O2626  O     0.60043   0.01762   0.61115   0.01267  Uiso   1.00
O2627  O     0.57460   0.01665   0.47625   0.01267  Uiso   1.00
O2628  O     0.62924   0.01699   0.47730   0.01267  Uiso   1.00
O2629  O     0.64324   0.26730   0.44893   0.01267  Uiso   1.00
O2630  O     0.56609   0.26711   0.44195   0.01267  Uiso   1.00
O2631  O     0.59144   0.26682   0.64325   0.01267  Uiso   1.00
O2632  O     0.53687   0.26789   0.64451   0.01267  Uiso   1.00
Si2633 Si    0.47398   0.92119   0.38270   0.01267  Uiso   1.00
Si2634 Si    0.43501   0.90689   0.43153   0.01267  Uiso   1.00
Si2635 Si    0.42655   0.92554   0.50477   0.01267  Uiso   1.00
Si2636 Si    0.37391   0.92431   0.50446   0.01267  Uiso   1.00
Si2637 Si    0.35765   0.90704   0.43293   0.01267  Uiso   1.00
Si2638 Si    0.39432   0.92090   0.38320   0.01267  Uiso   1.00
Si2639 Si    0.47448   0.80725   0.38670   0.01267  Uiso   1.00
Si2640 Si    0.43508   0.82772   0.43435   0.01267  Uiso   1.00
Si2641 Si    0.42345   0.80554   0.50555   0.01267  Uiso   1.00
Si2642 Si    0.37229   0.80593   0.50587   0.01267  Uiso   1.00
Si2643 Si    0.35493   0.82789   0.43530   0.01267  Uiso   1.00
Si2644 Si    0.39371   0.80574   0.39096   0.01267  Uiso   1.00
Si2645 Si    0.35843   0.86423   0.55050   0.01267  Uiso   1.00
Si2646 Si    0.39747   0.87849   0.59940   0.01267  Uiso   1.00
Si2647 Si    0.40519   0.85933   0.33926   0.01267  Uiso   1.00
Si2648 Si    0.45744   0.86049   0.33848   0.01267  Uiso   1.00
Si2649 Si    0.47340   0.87867   0.60103   0.01267  Uiso   1.00
Si2650 Si    0.43768   0.86419   0.54970   0.01267  Uiso   1.00
Si2651 Si    0.35841   0.97730   0.55446   0.01267  Uiso   1.00
Si2652 Si    0.39850   0.95772   0.60180   0.01267  Uiso   1.00
Si2653 Si    0.41014   0.97974   0.33952   0.01267  Uiso   1.00
Si2654 Si    0.46117   0.97979   0.33817   0.01267  Uiso   1.00
Si2655 Si    0.47791   0.95789   0.60103   0.01267  Uiso   1.00
Si2656 Si    0.43915   0.97916   0.55634   0.01267  Uiso   1.00
Si2657 Si    0.52519   0.67124   0.61145   0.01267  Uiso   1.00
Si2658 Si    0.56416   0.65602   0.56220   0.01267  Uiso   1.00
Si2659 Si    0.57273   0.67512   0.48942   0.01267  Uiso   1.00
Si2660 Si    0.62544   0.67459   0.48971   0.01267  Uiso   1.00
Si2661 Si    0.64213   0.65628   0.56054   0.01267  Uiso   1.00
Si2662 Si    0.60501   0.66942   0.61023   0.01267  Uiso   1.00
Si2663 Si    0.52503   0.55729   0.60717   0.01267  Uiso   1.00
Si2664 Si    0.56420   0.57722   0.55898   0.01267  Uiso   1.00
Si2665 Si    0.57626   0.55516   0.48756   0.01267  Uiso   1.00
Si2666 Si    0.62731   0.55508   0.48980   0.01267  Uiso   1.00
Si2667 Si    0.64396   0.57696   0.56018   0.01267  Uiso   1.00
Si2668 Si    0.60472   0.55663   0.60422   0.01267  Uiso   1.00
Si2669 Si    0.64093   0.61333   0.44517   0.01267  Uiso   1.00
Si2670 Si    0.60194   0.62750   0.39645   0.01267  Uiso   1.00
Si2671 Si    0.59316   0.60990   0.65655   0.01267  Uiso   1.00
Si2672 Si    0.54047   0.61092   0.65704   0.01267  Uiso   1.00
Si2673 Si    0.52388   0.62818   0.39475   0.01267  Uiso   1.00
Si2674 Si    0.56088   0.61448   0.44428   0.01267  Uiso   1.00
Si2675 Si    0.64068   0.72839   0.43993   0.01267  Uiso   1.00
Si2676 Si    0.60197   0.70635   0.39217   0.01267  Uiso   1.00
Si2677 Si    0.58975   0.72814   0.65381   0.01267  Uiso   1.00
Si2678 Si    0.53867   0.72920   0.65595   0.01267  Uiso   1.00
Si2679 Si    0.52186   0.70739   0.39332   0.01267  Uiso   1.00
Si2680 Si    0.56132   0.72794   0.43651   0.01267  Uiso   1.00
Si2681 Si    0.52314   0.86263   0.61277   0.01267  Uiso   1.00
Si2682 Si    0.57286   0.86101   0.48699   0.01267  Uiso   1.00
Si2683 Si    0.62499   0.86063   0.48929   0.01267  Uiso   1.00
Si2684 Si    0.64137   0.87844   0.55988   0.01267  Uiso   1.00
Si2685 Si    0.60527   0.86452   0.61075   0.01267  Uiso   1.00
Si2686 Si    0.52631   0.98070   0.60587   0.01267  Uiso   1.00
Si2687 Si    0.56260   0.95916   0.55849   0.01267  Uiso   1.00
Si2688 Si    0.57629   0.97759   0.48624   0.01267  Uiso   1.00
Si2689 Si    0.62736   0.97888   0.49009   0.01267  Uiso   1.00
Si2690 Si    0.64328   0.95751   0.56062   0.01267  Uiso   1.00
Si2691 Si    0.60356   0.97842   0.60314   0.01267  Uiso   1.00
Si2692 Si    0.64180   0.92051   0.44562   0.01267  Uiso   1.00
Si2693 Si    0.60324   0.90671   0.39496   0.01267  Uiso   1.00
Si2694 Si    0.59409   0.92403   0.65673   0.01267  Uiso   1.00
Si2695 Si    0.54166   0.92479   0.65404   0.01267  Uiso   1.00
Si2696 Si    0.52339   0.90644   0.39128   0.01267  Uiso   1.00
Si2697 Si    0.56109   0.92013   0.43974   0.01267  Uiso   1.00
Si2698 Si    0.63986   0.80632   0.44077   0.01267  Uiso   1.00
Si2699 Si    0.60205   0.82776   0.39151   0.01267  Uiso   1.00
Si2700 Si    0.59051   0.80566   0.65370   0.01267  Uiso   1.00
Si2701 Si    0.53953   0.80555   0.65821   0.01267  Uiso   1.00
Si2702 Si    0.52303   0.82750   0.39476   0.01267  Uiso   1.00
Si2703 Si    0.56221   0.80657   0.43658   0.01267  Uiso   1.00
Si2704 Si    0.47491   0.61413   0.38181   0.01267  Uiso   1.00
Si2705 Si    0.43590   0.62878   0.43034   0.01267  Uiso   1.00
Si2706 Si    0.42656   0.61147   0.50379   0.01267  Uiso   1.00
Si2707 Si    0.37395   0.60984   0.50459   0.01267  Uiso   1.00
Si2708 Si    0.35683   0.62786   0.43427   0.01267  Uiso   1.00
Si2709 Si    0.39416   0.61511   0.38464   0.01267  Uiso   1.00
Si2710 Si    0.47347   0.72972   0.38734   0.01267  Uiso   1.00
Si2711 Si    0.43562   0.70766   0.43487   0.01267  Uiso   1.00
Si2712 Si    0.42325   0.72806   0.50709   0.01267  Uiso   1.00
Si2713 Si    0.37224   0.72898   0.50358   0.01267  Uiso   1.00
Si2714 Si    0.35585   0.70688   0.43338   0.01267  Uiso   1.00
Si2715 Si    0.39504   0.72748   0.38949   0.01267  Uiso   1.00
Si2716 Si    0.35800   0.67092   0.54866   0.01267  Uiso   1.00
Si2717 Si    0.39701   0.65642   0.59737   0.01267  Uiso   1.00
Si2718 Si    0.40634   0.67379   0.33740   0.01267  Uiso   1.00
Si2719 Si    0.45889   0.67511   0.33780   0.01267  Uiso   1.00
Si2720 Si    0.47577   0.65708   0.60093   0.01267  Uiso   1.00
Si2721 Si    0.43867   0.67019   0.55108   0.01267  Uiso   1.00
Si2722 Si    0.35937   0.55522   0.55464   0.01267  Uiso   1.00
Si2723 Si    0.39745   0.57725   0.60196   0.01267  Uiso   1.00
Si2724 Si    0.41015   0.55712   0.34093   0.01267  Uiso   1.00
Si2725 Si    0.46102   0.55621   0.33703   0.01267  Uiso   1.00
Si2726 Si    0.47682   0.57843   0.60011   0.01267  Uiso   1.00
Si2727 Si    0.43798   0.55753   0.55575   0.01267  Uiso   1.00
Al2728 Al    0.56363   0.87991   0.56176   0.01267  Uiso   1.00
O2729  O     0.45602   0.92143   0.41196   0.01267  Uiso   1.00
O2730  O     0.43302   0.92660   0.46615   0.01267  Uiso   1.00
O2731  O     0.40021   0.92470   0.50963   0.01267  Uiso   1.00
O2732  O     0.36787   0.92384   0.46581   0.01267  Uiso   1.00
O2733  O     0.37062   0.92097   0.40100   0.01267  Uiso   1.00
O2734  O     0.41302   0.91265   0.41023   0.01267  Uiso   1.00
O2735  O     0.45520   0.81232   0.41350   0.01267  Uiso   1.00
O2736  O     0.43557   0.81040   0.47035   0.01267  Uiso   1.00
O2737  O     0.39795   0.81678   0.50226   0.01267  Uiso   1.00
O2738  O     0.36005   0.81212   0.47117   0.01267  Uiso   1.00
O2739  O     0.36958   0.80949   0.40734   0.01267  Uiso   1.00
O2740  O     0.41187   0.81989   0.41661   0.01267  Uiso   1.00
O2741  O     0.43822   0.86745   0.43828   0.01267  Uiso   1.00
O2742  O     0.36071   0.86710   0.43552   0.01267  Uiso   1.00
O2743  O     0.47434   0.95708   0.36449   0.01267  Uiso   1.00
O2744  O     0.46836   0.89291   0.35541   0.01267  Uiso   1.00
O2745  O     0.46879   0.82703   0.35285   0.01267  Uiso   1.00
O2746  O     0.39810   0.95725   0.36711   0.01267  Uiso   1.00
O2747  O     0.39456   0.89288   0.35448   0.01267  Uiso   1.00
O2748  O     0.39493   0.82649   0.35670   0.01267  Uiso   1.00
O2749  O     0.66552   0.91696   0.42810   0.01267  Uiso   1.00
O2750  O     0.66258   0.82216   0.42683   0.01267  Uiso   1.00
O2751  O     0.37490   0.86781   0.58156   0.01267  Uiso   1.00
O2752  O     0.39992   0.85786   0.63356   0.01267  Uiso   1.00
O2753  O     0.43144   0.85982   0.34609   0.01267  Uiso   1.00
O2754  O     0.46153   0.86169   0.63251   0.01267  Uiso   1.00
O2755  O     0.46129   0.86629   0.56791   0.01267  Uiso   1.00
O2756  O     0.41820   0.86995   0.57604   0.01267  Uiso   1.00
O2757  O     0.37777   0.97099   0.58097   0.01267  Uiso   1.00
O2758  O     0.39823   0.97570   0.63743   0.01267  Uiso   1.00
O2759  O     0.43565   0.96804   0.33662   0.01267  Uiso   1.00
O2760  O     0.47188   0.97628   0.63525   0.01267  Uiso   1.00
O2761  O     0.46362   0.97348   0.57111   0.01267  Uiso   1.00
O2762  O     0.42129   0.96659   0.58320   0.01267  Uiso   1.00
O2763  O     0.39712   0.91792   0.60714   0.01267  Uiso   1.00
O2764  O     0.47235   0.91861   0.60456   0.01267  Uiso   1.00
O2765  O     0.36089   0.82739   0.53477   0.01267  Uiso   1.00
O2766  O     0.36393   0.89154   0.52222   0.01267  Uiso   1.00
O2767  O     0.36359   0.95768   0.52042   0.01267  Uiso   1.00
O2768  O     0.43558   0.82757   0.53344   0.01267  Uiso   1.00
O2769  O     0.43686   0.89220   0.52107   0.01267  Uiso   1.00
O2770  O     0.43645   0.95849   0.52229   0.01267  Uiso   1.00
O2771  O     0.49875   0.86661   0.59869   0.01267  Uiso   1.00
O2772  O     0.50374   0.96316   0.59327   0.01267  Uiso   1.00
O2773  O     0.54360   0.67053   0.58287   0.01267  Uiso   1.00
O2774  O     0.56594   0.67668   0.52797   0.01267  Uiso   1.00
O2775  O     0.59912   0.67257   0.48532   0.01267  Uiso   1.00
O2776  O     0.63202   0.67439   0.52822   0.01267  Uiso   1.00
O2777  O     0.62891   0.66848   0.59292   0.01267  Uiso   1.00
O2778  O     0.58654   0.66069   0.58298   0.01267  Uiso   1.00
O2779  O     0.54431   0.56143   0.58014   0.01267  Uiso   1.00
O2780  O     0.56445   0.55981   0.52308   0.01267  Uiso   1.00
O2781  O     0.60178   0.56689   0.49027   0.01267  Uiso   1.00
O2782  O     0.63730   0.55793   0.52655   0.01267  Uiso   1.00
O2783  O     0.62946   0.56251   0.59050   0.01267  Uiso   1.00
O2784  O     0.58751   0.57087   0.57714   0.01267  Uiso   1.00
O2785  O     0.56041   0.61690   0.55467   0.01267  Uiso   1.00
O2786  O     0.63966   0.61645   0.55583   0.01267  Uiso   1.00
O2787  O     0.52527   0.70749   0.62912   0.01267  Uiso   1.00
O2788  O     0.52951   0.64300   0.63923   0.01267  Uiso   1.00
O2789  O     0.53126   0.57705   0.64069   0.01267  Uiso   1.00
O2790  O     0.60122   0.70630   0.62519   0.01267  Uiso   1.00
O2791  O     0.60432   0.64246   0.63994   0.01267  Uiso   1.00
O2792  O     0.60168   0.57627   0.63880   0.01267  Uiso   1.00
O2793  O     0.33424   0.66664   0.56590   0.01267  Uiso   1.00
O2794  O     0.33634   0.57036   0.56796   0.01267  Uiso   1.00
O2795  O     0.62236   0.61223   0.41678   0.01267  Uiso   1.00
O2796  O     0.60004   0.60810   0.36164   0.01267  Uiso   1.00
O2797  O     0.56677   0.61299   0.65258   0.01267  Uiso   1.00
O2798  O     0.53389   0.61042   0.36222   0.01267  Uiso   1.00
O2799  O     0.53697   0.61539   0.42697   0.01267  Uiso   1.00
O2800  O     0.57940   0.62250   0.41681   0.01267  Uiso   1.00
O2801  O     0.62162   0.72361   0.41261   0.01267  Uiso   1.00
O2802  O     0.60180   0.72215   0.35552   0.01267  Uiso   1.00
O2803  O     0.56408   0.71723   0.65710   0.01267  Uiso   1.00
O2804  O     0.52789   0.72536   0.35875   0.01267  Uiso   1.00
O2805  O     0.53650   0.72310   0.42280   0.01267  Uiso   1.00
O2806  O     0.57844   0.71293   0.40972   0.01267  Uiso   1.00
O2807  O     0.60614   0.66672   0.38994   0.01267  Uiso   1.00
O2808  O     0.52669   0.66802   0.39042   0.01267  Uiso   1.00
O2809  O     0.64119   0.57820   0.46468   0.01267  Uiso   1.00
O2810  O     0.63644   0.64304   0.47130   0.01267  Uiso   1.00
O2811  O     0.63448   0.70885   0.47367   0.01267  Uiso   1.00
O2812  O     0.56426   0.57786   0.45999   0.01267  Uiso   1.00
O2813  O     0.56170   0.64239   0.47309   0.01267  Uiso   1.00
O2814  O     0.56401   0.70873   0.47147   0.01267  Uiso   1.00
O2815  O     0.49832   0.61850   0.40000   0.01267  Uiso   1.00
O2816  O     0.49614   0.71387   0.40131   0.01267  Uiso   1.00
O2817  O     0.53960   0.85663   0.57980   0.01267  Uiso   1.00
O2818  O     0.56504   0.86067   0.52430   0.01267  Uiso   1.00
O2819  O     0.59919   0.86732   0.48273   0.01267  Uiso   1.00
O2820  O     0.63060   0.86023   0.52813   0.01267  Uiso   1.00
O2821  O     0.62910   0.86596   0.59279   0.01267  Uiso   1.00
O2822  O     0.58552   0.87173   0.58630   0.01267  Uiso   1.00
O2823  O     0.54403   0.98202   0.57635   0.01267  Uiso   1.00
O2824  O     0.56341   0.97089   0.52027   0.01267  Uiso   1.00
O2825  O     0.60191   0.96688   0.49038   0.01267  Uiso   1.00
O2826  O     0.63743   0.97710   0.52687   0.01267  Uiso   1.00
O2827  O     0.62844   0.97177   0.59050   0.01267  Uiso   1.00
O2828  O     0.58655   0.96707   0.57471   0.01267  Uiso   1.00
O2829  O     0.55613   0.92088   0.56223   0.01267  Uiso   1.00
O2830  O     0.63874   0.91830   0.55513   0.01267  Uiso   1.00
O2831  O     0.52456   0.82962   0.63514   0.01267  Uiso   1.00
O2832  O     0.53188   0.89522   0.63079   0.01267  Uiso   1.00
O2833  O     0.53601   0.96026   0.63730   0.01267  Uiso   1.00
O2834  O     0.60315   0.82731   0.62639   0.01267  Uiso   1.00
O2835  O     0.60559   0.89181   0.64046   0.01267  Uiso   1.00
O2836  O     0.59955   0.95802   0.63702   0.01267  Uiso   1.00
O2837  O     0.33371   0.86897   0.56358   0.01267  Uiso   1.00
O2838  O     0.33550   0.96397   0.57004   0.01267  Uiso   1.00
O2839  O     0.62298   0.92036   0.41771   0.01267  Uiso   1.00
O2840  O     0.60342   0.92736   0.36066   0.01267  Uiso   1.00
O2841  O     0.56762   0.91887   0.65774   0.01267  Uiso   1.00
O2842  O     0.52991   0.92326   0.35631   0.01267  Uiso   1.00
O2843  O     0.53762   0.92216   0.42098   0.01267  Uiso   1.00
O2844  O     0.57987   0.91257   0.41266   0.01267  Uiso   1.00
O2845  O     0.62120   0.81051   0.41290   0.01267  Uiso   1.00
O2846  O     0.60223   0.81028   0.35576   0.01267  Uiso   1.00
O2847  O     0.56486   0.81756   0.65619   0.01267  Uiso   1.00
O2848  O     0.53043   0.80701   0.36216   0.01267  Uiso   1.00
O2849  O     0.53689   0.81355   0.42589   0.01267  Uiso   1.00
O2850  O     0.57817   0.82127   0.40812   0.01267  Uiso   1.00
O2851  O     0.60648   0.86725   0.38811   0.01267  Uiso   1.00
O2852  O     0.52766   0.86664   0.38871   0.01267  Uiso   1.00
O2853  O     0.64126   0.95545   0.46540   0.01267  Uiso   1.00
O2854  O     0.63892   0.88988   0.47132   0.01267  Uiso   1.00
O2855  O     0.63232   0.82484   0.47439   0.01267  Uiso   1.00
O2856  O     0.56538   0.95578   0.45707   0.01267  Uiso   1.00
O2857  O     0.56032   0.89021   0.46643   0.01267  Uiso   1.00
O2858  O     0.56689   0.82472   0.47130   0.01267  Uiso   1.00
O2859  O     0.49774   0.91377   0.39874   0.01267  Uiso   1.00
O2860  O     0.49722   0.82127   0.40222   0.01267  Uiso   1.00
O2861  O     0.45559   0.61226   0.40918   0.01267  Uiso   1.00
O2862  O     0.43460   0.61046   0.46582   0.01267  Uiso   1.00
O2863  O     0.40018   0.61589   0.50626   0.01267  Uiso   1.00
O2864  O     0.36591   0.60870   0.46670   0.01267  Uiso   1.00
O2865  O     0.37033   0.61560   0.40216   0.01267  Uiso   1.00
O2866  O     0.41271   0.62402   0.41173   0.01267  Uiso   1.00
O2867  O     0.45502   0.72726   0.41591   0.01267  Uiso   1.00
O2868  O     0.43525   0.72138   0.47220   0.01267  Uiso   1.00
O2869  O     0.39771   0.71682   0.50434   0.01267  Uiso   1.00
O2870  O     0.36299   0.72703   0.46627   0.01267  Uiso   1.00
O2871  O     0.37035   0.71971   0.40232   0.01267  Uiso   1.00
O2872  O     0.41215   0.71458   0.41741   0.01267  Uiso   1.00
O2873  O     0.44070   0.66816   0.43483   0.01267  Uiso   1.00
O2874  O     0.35999   0.66758   0.43960   0.01267  Uiso   1.00
O2875  O     0.47549   0.57989   0.36078   0.01267  Uiso   1.00
O2876  O     0.47135   0.64523   0.35684   0.01267  Uiso   1.00
O2877  O     0.46530   0.71037   0.35453   0.01267  Uiso   1.00
O2878  O     0.39815   0.57837   0.36953   0.01267  Uiso   1.00
O2879  O     0.39453   0.64248   0.35525   0.01267  Uiso   1.00
O2880  O     0.39939   0.70847   0.35489   0.01267  Uiso   1.00
O2881  O     0.66462   0.61894   0.42804   0.01267  Uiso   1.00
O2882  O     0.66359   0.71399   0.42517   0.01267  Uiso   1.00
O2883  O     0.37681   0.67222   0.57680   0.01267  Uiso   1.00
O2884  O     0.39852   0.67503   0.63268   0.01267  Uiso   1.00
O2885  O     0.43271   0.66889   0.34002   0.01267  Uiso   1.00
O2886  O     0.46670   0.67665   0.63310   0.01267  Uiso   1.00
O2887  O     0.46246   0.66930   0.56866   0.01267  Uiso   1.00
O2888  O     0.41990   0.66195   0.57802   0.01267  Uiso   1.00
O2889  O     0.37747   0.55870   0.58355   0.01267  Uiso   1.00
O2890  O     0.39823   0.56342   0.63925   0.01267  Uiso   1.00
O2891  O     0.43566   0.56871   0.33819   0.01267  Uiso   1.00
O2892  O     0.46995   0.55774   0.63281   0.01267  Uiso   1.00
O2893  O     0.46250   0.56575   0.56895   0.01267  Uiso   1.00
O2894  O     0.42052   0.56938   0.58361   0.01267  Uiso   1.00
O2895  O     0.39303   0.61694   0.60227   0.01267  Uiso   1.00
O2896  O     0.47228   0.61756   0.60682   0.01267  Uiso   1.00
O2897  O     0.35807   0.70544   0.52793   0.01267  Uiso   1.00
O2898  O     0.36186   0.64006   0.52365   0.01267  Uiso   1.00
O2899  O     0.36755   0.57477   0.52178   0.01267  Uiso   1.00
O2900  O     0.43518   0.70711   0.53597   0.01267  Uiso   1.00
O2901  O     0.43813   0.64296   0.52169   0.01267  Uiso   1.00
O2902  O     0.43371   0.57696   0.52136   0.01267  Uiso   1.00
O2903  O     0.50141   0.66553   0.59477   0.01267  Uiso   1.00
O2904  O     0.50249   0.57232   0.59174   0.01267  Uiso   1.00
O2905  O     0.47704   0.76833   0.37757   0.01267  Uiso   1.00
O2906  O     0.39827   0.76690   0.38307   0.01267  Uiso   1.00
O2907  O     0.42530   0.76700   0.51674   0.01267  Uiso   1.00
O2908  O     0.37041   0.76709   0.51605   0.01267  Uiso   1.00
O2909  O     0.35666   0.51637   0.54543   0.01267  Uiso   1.00
O2910  O     0.43552   0.51819   0.54846   0.01267  Uiso   1.00
O2911  O     0.40865   0.51822   0.35092   0.01267  Uiso   1.00
O2912  O     0.46296   0.51819   0.34992   0.01267  Uiso   1.00
O2913  O     0.52145   0.51866   0.61715   0.01267  Uiso   1.00
O2914  O     0.60043   0.51762   0.61115   0.01267  Uiso   1.00
O2915  O     0.57460   0.51665   0.47625   0.01267  Uiso   1.00
O2916  O     0.62924   0.51699   0.47730   0.01267  Uiso   1.00
O2917  O     0.64324   0.76730   0.44893   0.01267  Uiso   1.00
O2918  O     0.56609   0.76711   0.44195   0.01267  Uiso   1.00
O2919  O     0.59144   0.76682   0.64325   0.01267  Uiso   1.00
O2920  O     0.53687   0.76789   0.64451   0.01267  Uiso   1.00
H2921  H     0.53696   0.83470   0.56866   0.01267  Uiso   1.00
H2922  H     0.47267   0.77145   0.54993   0.01267  Uiso   1.00
H2923  H     0.50391   0.76659   0.59497   0.01267  Uiso   1.00
H2924  H     0.48877   0.79076   0.49261   0.01267  Uiso   1.00
H2925  H     0.53170   0.80035   0.49608   0.01267  Uiso   1.00
C2926  C     0.49860   0.78716   0.51464   0.01267  Uiso   1.00
C2927  C     0.52076   0.79220   0.51547   0.01267  Uiso   1.00
C2928  C     0.48991   0.77679   0.54561   0.01267  Uiso   1.00
C2929  C     0.50560   0.77421   0.56950   0.01267  Uiso   1.00
S2930  S     0.53117   0.78357   0.55392   0.01267  Uiso   1.00
Si2931 Si    0.80731   0.42119   0.38270   0.01267  Uiso   1.00
Si2932 Si    0.76835   0.40689   0.43153   0.01267  Uiso   1.00
Si2933 Si    0.75989   0.42554   0.50477   0.01267  Uiso   1.00
Si2934 Si    0.70725   0.42431   0.50446   0.01267  Uiso   1.00
Si2935 Si    0.69098   0.40704   0.43293   0.01267  Uiso   1.00
Si2936 Si    0.72765   0.42090   0.38320   0.01267  Uiso   1.00
Si2937 Si    0.80782   0.30725   0.38670   0.01267  Uiso   1.00
Si2938 Si    0.76841   0.32772   0.43435   0.01267  Uiso   1.00
Si2939 Si    0.75679   0.30554   0.50555   0.01267  Uiso   1.00
Si2940 Si    0.70563   0.30593   0.50587   0.01267  Uiso   1.00
Si2941 Si    0.68827   0.32789   0.43530   0.01267  Uiso   1.00
Si2942 Si    0.72704   0.30574   0.39096   0.01267  Uiso   1.00
Si2943 Si    0.69177   0.36423   0.55050   0.01267  Uiso   1.00
Si2944 Si    0.73081   0.37849   0.59940   0.01267  Uiso   1.00
Si2945 Si    0.73853   0.35933   0.33926   0.01267  Uiso   1.00
Si2946 Si    0.79078   0.36049   0.33848   0.01267  Uiso   1.00
Si2947 Si    0.80673   0.37867   0.60103   0.01267  Uiso   1.00
Si2948 Si    0.77101   0.36419   0.54970   0.01267  Uiso   1.00
Si2949 Si    0.69174   0.47730   0.55446   0.01267  Uiso   1.00
Si2950 Si    0.73184   0.45772   0.60180   0.01267  Uiso   1.00
Si2951 Si    0.74347   0.47974   0.33952   0.01267  Uiso   1.00
Si2952 Si    0.79450   0.47979   0.33817   0.01267  Uiso   1.00
Si2953 Si    0.81124   0.45789   0.60103   0.01267  Uiso   1.00
Si2954 Si    0.77249   0.47916   0.55634   0.01267  Uiso   1.00
Si2955 Si    0.85852   0.17124   0.61145   0.01267  Uiso   1.00
Si2956 Si    0.89749   0.15602   0.56220   0.01267  Uiso   1.00
Si2957 Si    0.90607   0.17512   0.48942   0.01267  Uiso   1.00
Si2958 Si    0.95877   0.17459   0.48971   0.01267  Uiso   1.00
Si2959 Si    0.97546   0.15628   0.56054   0.01267  Uiso   1.00
Si2960 Si    0.93834   0.16942   0.61023   0.01267  Uiso   1.00
Si2961 Si    0.85836   0.05729   0.60717   0.01267  Uiso   1.00
Si2962 Si    0.89754   0.07722   0.55898   0.01267  Uiso   1.00
Si2963 Si    0.90959   0.05516   0.48756   0.01267  Uiso   1.00
Si2964 Si    0.96064   0.05508   0.48980   0.01267  Uiso   1.00
Si2965 Si    0.97729   0.07696   0.56018   0.01267  Uiso   1.00
Si2966 Si    0.93806   0.05663   0.60422   0.01267  Uiso   1.00
Si2967 Si    0.97426   0.11333   0.44517   0.01267  Uiso   1.00
Si2968 Si    0.93527   0.12750   0.39645   0.01267  Uiso   1.00
Si2969 Si    0.92649   0.10990   0.65655   0.01267  Uiso   1.00
Si2970 Si    0.87380   0.11092   0.65704   0.01267  Uiso   1.00
Si2971 Si    0.85722   0.12818   0.39475   0.01267  Uiso   1.00
Si2972 Si    0.89421   0.11448   0.44428   0.01267  Uiso   1.00
Si2973 Si    0.97401   0.22839   0.43993   0.01267  Uiso   1.00
Si2974 Si    0.93530   0.20635   0.39217   0.01267  Uiso   1.00
Si2975 Si    0.92309   0.22814   0.65381   0.01267  Uiso   1.00
Si2976 Si    0.87200   0.22920   0.65595   0.01267  Uiso   1.00
Si2977 Si    0.85519   0.20739   0.39332   0.01267  Uiso   1.00
Si2978 Si    0.89466   0.22794   0.43651   0.01267  Uiso   1.00
Si2979 Si    0.85647   0.36263   0.61277   0.01267  Uiso   1.00
Si2980 Si    0.90619   0.36101   0.48699   0.01267  Uiso   1.00
Si2981 Si    0.95832   0.36063   0.48929   0.01267  Uiso   1.00
Si2982 Si    0.97471   0.37844   0.55988   0.01267  Uiso   1.00
Si2983 Si    0.93860   0.36452   0.61075   0.01267  Uiso   1.00
Si2984 Si    0.85965   0.48070   0.60587   0.01267  Uiso   1.00
Si2985 Si    0.89594   0.45916   0.55849   0.01267  Uiso   1.00
Si2986 Si    0.90962   0.47759   0.48624   0.01267  Uiso   1.00
Si2987 Si    0.96069   0.47888   0.49009   0.01267  Uiso   1.00
Si2988 Si    0.97662   0.45751   0.56062   0.01267  Uiso   1.00
Si2989 Si    0.93689   0.47842   0.60314   0.01267  Uiso   1.00
Si2990 Si    0.97514   0.42051   0.44562   0.01267  Uiso   1.00
Si2991 Si    0.93657   0.40671   0.39496   0.01267  Uiso   1.00
Si2992 Si    0.92742   0.42403   0.65673   0.01267  Uiso   1.00
Si2993 Si    0.87499   0.42479   0.65404   0.01267  Uiso   1.00
Si2994 Si    0.85672   0.40644   0.39128   0.01267  Uiso   1.00
Si2995 Si    0.89443   0.42013   0.43974   0.01267  Uiso   1.00
Si2996 Si    0.97319   0.30632   0.44077   0.01267  Uiso   1.00
Si2997 Si    0.93539   0.32776   0.39151   0.01267  Uiso   1.00
Si2998 Si    0.92384   0.30566   0.65370   0.01267  Uiso   1.00
Si2999 Si    0.87286   0.30555   0.65821   0.01267  Uiso   1.00
Si3000 Si    0.85636   0.32750   0.39476   0.01267  Uiso   1.00
Si3001 Si    0.89555   0.30657   0.43658   0.01267  Uiso   1.00
Si3002 Si    0.80824   0.11413   0.38181   0.01267  Uiso   1.00
Si3003 Si    0.76923   0.12878   0.43034   0.01267  Uiso   1.00
Si3004 Si    0.75989   0.11147   0.50379   0.01267  Uiso   1.00
Si3005 Si    0.70728   0.10984   0.50459   0.01267  Uiso   1.00
Si3006 Si    0.69017   0.12786   0.43427   0.01267  Uiso   1.00
Si3007 Si    0.72749   0.11511   0.38464   0.01267  Uiso   1.00
Si3008 Si    0.80680   0.22972   0.38734   0.01267  Uiso   1.00
Si3009 Si    0.76895   0.20766   0.43487   0.01267  Uiso   1.00
Si3010 Si    0.75658   0.22806   0.50709   0.01267  Uiso   1.00
Si3011 Si    0.70557   0.22898   0.50358   0.01267  Uiso   1.00
Si3012 Si    0.68919   0.20688   0.43338   0.01267  Uiso   1.00
Si3013 Si    0.72837   0.22748   0.38949   0.01267  Uiso   1.00
Si3014 Si    0.69133   0.17092   0.54866   0.01267  Uiso   1.00
Si3015 Si    0.73034   0.15642   0.59737   0.01267  Uiso   1.00
Si3016 Si    0.73967   0.17379   0.33740   0.01267  Uiso   1.00
Si3017 Si    0.79222   0.17511   0.33780   0.01267  Uiso   1.00
Si3018 Si    0.80911   0.15708   0.60093   0.01267  Uiso   1.00
Si3019 Si    0.77201   0.17019   0.55108   0.01267  Uiso   1.00
Si3020 Si    0.69270   0.05522   0.55464   0.01267  Uiso   1.00
Si3021 Si    0.73079   0.07725   0.60196   0.01267  Uiso   1.00
Si3022 Si    0.74348   0.05712   0.34093   0.01267  Uiso   1.00
Si3023 Si    0.79436   0.05621   0.33703   0.01267  Uiso   1.00
Si3024 Si    0.81015   0.07843   0.60011   0.01267  Uiso   1.00
Si3025 Si    0.77131   0.05753   0.55575   0.01267  Uiso   1.00
Al3026 Al    0.89696   0.37991   0.56176   0.01267  Uiso   1.00
O3027  O     0.78935   0.42143   0.41196   0.01267  Uiso   1.00
O3028  O     0.76635   0.42660   0.46615   0.01267  Uiso   1.00
O3029  O     0.73354   0.42470   0.50963   0.01267  Uiso   1.00
O3030  O     0.70120   0.42384   0.46581   0.01267  Uiso   1.00
O3031  O     0.70395   0.42097   0.40100   0.01267  Uiso   1.00
O3032  O     0.74635   0.41265   0.41023   0.01267  Uiso   1.00
O3033  O     0.78853   0.31232   0.41350   0.01267  Uiso   1.00
O3034  O     0.76890   0.31040   0.47035   0.01267  Uiso   1.00
O3035  O     0.73128   0.31678   0.50226   0.01267  Uiso   1.00
O3036  O     0.69339   0.31212   0.47117   0.01267  Uiso   1.00
O3037  O     0.70292   0.30949   0.40734   0.01267  Uiso   1.00
O3038  O     0.74520   0.31989   0.41661   0.01267  Uiso   1.00
O3039  O     0.77155   0.36745   0.43828   0.01267  Uiso   1.00
O3040  O     0.69404   0.36710   0.43552   0.01267  Uiso   1.00
O3041  O     0.80768   0.45708   0.36449   0.01267  Uiso   1.00
O3042  O     0.80169   0.39291   0.35541   0.01267  Uiso   1.00
O3043  O     0.80213   0.32703   0.35285   0.01267  Uiso   1.00
O3044  O     0.73143   0.45725   0.36711   0.01267  Uiso   1.00
O3045  O     0.72790   0.39288   0.35448   0.01267  Uiso   1.00
O3046  O     0.72826   0.32649   0.35670   0.01267  Uiso   1.00
O3047  O     0.99885   0.41696   0.42810   0.01267  Uiso   1.00
O3048  O     0.99591   0.32216   0.42683   0.01267  Uiso   1.00
O3049  O     0.70823   0.36781   0.58156   0.01267  Uiso   1.00
O3050  O     0.73326   0.35786   0.63356   0.01267  Uiso   1.00
O3051  O     0.76478   0.35982   0.34609   0.01267  Uiso   1.00
O3052  O     0.79487   0.36169   0.63251   0.01267  Uiso   1.00
O3053  O     0.79462   0.36629   0.56791   0.01267  Uiso   1.00
O3054  O     0.75153   0.36995   0.57604   0.01267  Uiso   1.00
O3055  O     0.71110   0.47099   0.58097   0.01267  Uiso   1.00
O3056  O     0.73156   0.47570   0.63743   0.01267  Uiso   1.00
O3057  O     0.76898   0.46804   0.33662   0.01267  Uiso   1.00
O3058  O     0.80522   0.47628   0.63525   0.01267  Uiso   1.00
O3059  O     0.79695   0.47348   0.57111   0.01267  Uiso   1.00
O3060  O     0.75463   0.46659   0.58320   0.01267  Uiso   1.00
O3061  O     0.73046   0.41792   0.60714   0.01267  Uiso   1.00
O3062  O     0.80568   0.41861   0.60456   0.01267  Uiso   1.00
O3063  O     0.69422   0.32739   0.53477   0.01267  Uiso   1.00
O3064  O     0.69727   0.39154   0.52222   0.01267  Uiso   1.00
O3065  O     0.69692   0.45768   0.52042   0.01267  Uiso   1.00
O3066  O     0.76891   0.32757   0.53344   0.01267  Uiso   1.00
O3067  O     0.77020   0.39220   0.52107   0.01267  Uiso   1.00
O3068  O     0.76978   0.45849   0.52229   0.01267  Uiso   1.00
O3069  O     0.83208   0.36661   0.59869   0.01267  Uiso   1.00
O3070  O     0.83707   0.46316   0.59327   0.01267  Uiso   1.00
O3071  O     0.87693   0.17053   0.58287   0.01267  Uiso   1.00
O3072  O     0.89927   0.17668   0.52797   0.01267  Uiso   1.00
O3073  O     0.93245   0.17257   0.48532   0.01267  Uiso   1.00
O3074  O     0.96536   0.17439   0.52822   0.01267  Uiso   1.00
O3075  O     0.96224   0.16848   0.59292   0.01267  Uiso   1.00
O3076  O     0.91987   0.16069   0.58298   0.01267  Uiso   1.00
O3077  O     0.87765   0.06143   0.58014   0.01267  Uiso   1.00
O3078  O     0.89778   0.05981   0.52308   0.01267  Uiso   1.00
O3079  O     0.93511   0.06689   0.49027   0.01267  Uiso   1.00
O3080  O     0.97064   0.05793   0.52655   0.01267  Uiso   1.00
O3081  O     0.96280   0.06251   0.59050   0.01267  Uiso   1.00
O3082  O     0.92084   0.07087   0.57714   0.01267  Uiso   1.00
O3083  O     0.89375   0.11690   0.55467   0.01267  Uiso   1.00
O3084  O     0.97299   0.11645   0.55583   0.01267  Uiso   1.00
O3085  O     0.85860   0.20749   0.62912   0.01267  Uiso   1.00
O3086  O     0.86285   0.14300   0.63923   0.01267  Uiso   1.00
O3087  O     0.86460   0.07705   0.64069   0.01267  Uiso   1.00
O3088  O     0.93455   0.20630   0.62519   0.01267  Uiso   1.00
O3089  O     0.93765   0.14246   0.63994   0.01267  Uiso   1.00
O3090  O     0.93501   0.07627   0.63880   0.01267  Uiso   1.00
O3091  O     0.66757   0.16664   0.56590   0.01267  Uiso   1.00
O3092  O     0.66968   0.07036   0.56796   0.01267  Uiso   1.00
O3093  O     0.95570   0.11223   0.41678   0.01267  Uiso   1.00
O3094  O     0.93337   0.10810   0.36164   0.01267  Uiso   1.00
O3095  O     0.90011   0.11299   0.65258   0.01267  Uiso   1.00
O3096  O     0.86722   0.11042   0.36222   0.01267  Uiso   1.00
O3097  O     0.87031   0.11539   0.42697   0.01267  Uiso   1.00
O3098  O     0.91274   0.12250   0.41681   0.01267  Uiso   1.00
O3099  O     0.95495   0.22361   0.41261   0.01267  Uiso   1.00
O3100  O     0.93513   0.22215   0.35552   0.01267  Uiso   1.00
O3101  O     0.89741   0.21723   0.65710   0.01267  Uiso   1.00
O3102  O     0.86123   0.22536   0.35875   0.01267  Uiso   1.00
O3103  O     0.86983   0.22310   0.42280   0.01267  Uiso   1.00
O3104  O     0.91177   0.21293   0.40972   0.01267  Uiso   1.00
O3105  O     0.93947   0.16672   0.38994   0.01267  Uiso   1.00
O3106  O     0.86003   0.16802   0.39042   0.01267  Uiso   1.00
O3107  O     0.97452   0.07820   0.46468   0.01267  Uiso   1.00
O3108  O     0.96977   0.14304   0.47130   0.01267  Uiso   1.00
O3109  O     0.96782   0.20885   0.47367   0.01267  Uiso   1.00
O3110  O     0.89759   0.07786   0.45999   0.01267  Uiso   1.00
O3111  O     0.89503   0.14239   0.47309   0.01267  Uiso   1.00
O3112  O     0.89734   0.20873   0.47147   0.01267  Uiso   1.00
O3113  O     0.83165   0.11850   0.40000   0.01267  Uiso   1.00
O3114  O     0.82947   0.21387   0.40131   0.01267  Uiso   1.00
O3115  O     0.87293   0.35663   0.57980   0.01267  Uiso   1.00
O3116  O     0.89837   0.36067   0.52430   0.01267  Uiso   1.00
O3117  O     0.93253   0.36732   0.48273   0.01267  Uiso   1.00
O3118  O     0.96393   0.36023   0.52813   0.01267  Uiso   1.00
O3119  O     0.96243   0.36596   0.59279   0.01267  Uiso   1.00
O3120  O     0.91886   0.37173   0.58630   0.01267  Uiso   1.00
O3121  O     0.87736   0.48202   0.57635   0.01267  Uiso   1.00
O3122  O     0.89674   0.47089   0.52027   0.01267  Uiso   1.00
O3123  O     0.93524   0.46688   0.49038   0.01267  Uiso   1.00
O3124  O     0.97076   0.47710   0.52687   0.01267  Uiso   1.00
O3125  O     0.96177   0.47177   0.59050   0.01267  Uiso   1.00
O3126  O     0.91988   0.46707   0.57471   0.01267  Uiso   1.00
O3127  O     0.88946   0.42088   0.56223   0.01267  Uiso   1.00
O3128  O     0.97207   0.41830   0.55513   0.01267  Uiso   1.00
O3129  O     0.85790   0.32962   0.63514   0.01267  Uiso   1.00
O3130  O     0.86521   0.39522   0.63079   0.01267  Uiso   1.00
O3131  O     0.86934   0.46026   0.63730   0.01267  Uiso   1.00
O3132  O     0.93648   0.32731   0.62639   0.01267  Uiso   1.00
O3133  O     0.93892   0.39181   0.64046   0.01267  Uiso   1.00
O3134  O     0.93289   0.45802   0.63702   0.01267  Uiso   1.00
O3135  O     0.66705   0.36897   0.56358   0.01267  Uiso   1.00
O3136  O     0.66883   0.46397   0.57004   0.01267  Uiso   1.00
O3137  O     0.95631   0.42036   0.41771   0.01267  Uiso   1.00
O3138  O     0.93675   0.42736   0.36066   0.01267  Uiso   1.00
O3139  O     0.90096   0.41887   0.65774   0.01267  Uiso   1.00
O3140  O     0.86324   0.42326   0.35631   0.01267  Uiso   1.00
O3141  O     0.87095   0.42216   0.42098   0.01267  Uiso   1.00
O3142  O     0.91321   0.41257   0.41266   0.01267  Uiso   1.00
O3143  O     0.95453   0.31051   0.41290   0.01267  Uiso   1.00
O3144  O     0.93556   0.31028   0.35576   0.01267  Uiso   1.00
O3145  O     0.89819   0.31756   0.65619   0.01267  Uiso   1.00
O3146  O     0.86377   0.30701   0.36216   0.01267  Uiso   1.00
O3147  O     0.87022   0.31355   0.42589   0.01267  Uiso   1.00
O3148  O     0.91151   0.32127   0.40812   0.01267  Uiso   1.00
O3149  O     0.93981   0.36725   0.38811   0.01267  Uiso   1.00
O3150  O     0.86100   0.36664   0.38871   0.01267  Uiso   1.00
O3151  O     0.97459   0.45545   0.46540   0.01267  Uiso   1.00
O3152  O     0.97225   0.38988   0.47132   0.01267  Uiso   1.00
O3153  O     0.96565   0.32484   0.47439   0.01267  Uiso   1.00
O3154  O     0.89871   0.45578   0.45707   0.01267  Uiso   1.00
O3155  O     0.89365   0.39021   0.46643   0.01267  Uiso   1.00
O3156  O     0.90022   0.32472   0.47130   0.01267  Uiso   1.00
O3157  O     0.83107   0.41377   0.39874   0.01267  Uiso   1.00
O3158  O     0.83056   0.32127   0.40222   0.01267  Uiso   1.00
O3159  O     0.78892   0.11226   0.40918   0.01267  Uiso   1.00
O3160  O     0.76793   0.11046   0.46582   0.01267  Uiso   1.00
O3161  O     0.73352   0.11589   0.50626   0.01267  Uiso   1.00
O3162  O     0.69924   0.10870   0.46670   0.01267  Uiso   1.00
O3163  O     0.70366   0.11560   0.40216   0.01267  Uiso   1.00
O3164  O     0.74604   0.12402   0.41173   0.01267  Uiso   1.00
O3165  O     0.78836   0.22726   0.41591   0.01267  Uiso   1.00
O3166  O     0.76858   0.22138   0.47220   0.01267  Uiso   1.00
O3167  O     0.73104   0.21682   0.50434   0.01267  Uiso   1.00
O3168  O     0.69633   0.22703   0.46627   0.01267  Uiso   1.00
O3169  O     0.70368   0.21971   0.40232   0.01267  Uiso   1.00
O3170  O     0.74548   0.21458   0.41741   0.01267  Uiso   1.00
O3171  O     0.77404   0.16816   0.43483   0.01267  Uiso   1.00
O3172  O     0.69332   0.16758   0.43960   0.01267  Uiso   1.00
O3173  O     0.80883   0.07989   0.36078   0.01267  Uiso   1.00
O3174  O     0.80469   0.14523   0.35684   0.01267  Uiso   1.00
O3175  O     0.79863   0.21037   0.35453   0.01267  Uiso   1.00
O3176  O     0.73149   0.07837   0.36953   0.01267  Uiso   1.00
O3177  O     0.72786   0.14248   0.35525   0.01267  Uiso   1.00
O3178  O     0.73272   0.20847   0.35489   0.01267  Uiso   1.00
O3179  O     0.99795   0.11894   0.42804   0.01267  Uiso   1.00
O3180  O     0.99692   0.21399   0.42517   0.01267  Uiso   1.00
O3181  O     0.71014   0.17222   0.57680   0.01267  Uiso   1.00
O3182  O     0.73186   0.17503   0.63268   0.01267  Uiso   1.00
O3183  O     0.76604   0.16889   0.34002   0.01267  Uiso   1.00
O3184  O     0.80003   0.17665   0.63310   0.01267  Uiso   1.00
O3185  O     0.79579   0.16930   0.56866   0.01267  Uiso   1.00
O3186  O     0.75323   0.16195   0.57802   0.01267  Uiso   1.00
O3187  O     0.71080   0.05870   0.58355   0.01267  Uiso   1.00
O3188  O     0.73156   0.06342   0.63925   0.01267  Uiso   1.00
O3189  O     0.76900   0.06871   0.33819   0.01267  Uiso   1.00
O3190  O     0.80328   0.05774   0.63281   0.01267  Uiso   1.00
O3191  O     0.79583   0.06575   0.56895   0.01267  Uiso   1.00
O3192  O     0.75385   0.06938   0.58361   0.01267  Uiso   1.00
O3193  O     0.72636   0.11694   0.60227   0.01267  Uiso   1.00
O3194  O     0.80561   0.11756   0.60682   0.01267  Uiso   1.00
O3195  O     0.69141   0.20544   0.52793   0.01267  Uiso   1.00
O3196  O     0.69519   0.14006   0.52365   0.01267  Uiso   1.00
O3197  O     0.70088   0.07477   0.52178   0.01267  Uiso   1.00
O3198  O     0.76852   0.20711   0.53597   0.01267  Uiso   1.00
O3199  O     0.77146   0.14296   0.52169   0.01267  Uiso   1.00
O3200  O     0.76704   0.07696   0.52136   0.01267  Uiso   1.00
O3201  O     0.83474   0.16553   0.59477   0.01267  Uiso   1.00
O3202  O     0.83583   0.07232   0.59174   0.01267  Uiso   1.00
O3203  O     0.81037   0.26833   0.37757   0.01267  Uiso   1.00
O3204  O     0.73160   0.26690   0.38307   0.01267  Uiso   1.00
O3205  O     0.75863   0.26700   0.51674   0.01267  Uiso   1.00
O3206  O     0.70374   0.26709   0.51605   0.01267  Uiso   1.00
O3207  O     0.68999   0.01637   0.54543   0.01267  Uiso   1.00
O3208  O     0.76885   0.01819   0.54846   0.01267  Uiso   1.00
O3209  O     0.74198   0.01822   0.35092   0.01267  Uiso   1.00
O3210  O     0.79629   0.01819   0.34992   0.01267  Uiso   1.00
O3211  O     0.85478   0.01866   0.61715   0.01267  Uiso   1.00
O3212  O     0.93376   0.01762   0.61115   0.01267  Uiso   1.00
O3213  O     0.90793   0.01665   0.47625   0.01267  Uiso   1.00
O3214  O     0.96257   0.01699   0.47730   0.01267  Uiso   1.00
O3215  O     0.97657   0.26730   0.44893   0.01267  Uiso   1.00
O3216  O     0.89943   0.26711   0.44195   0.01267  Uiso   1.00
O3217  O     0.92478   0.26682   0.64325   0.01267  Uiso   1.00
O3218  O     0.87021   0.26789   0.64451   0.01267  Uiso   1.00
Si3219 Si    0.80731   0.92119   0.38270   0.01267  Uiso   1.00
Si3220 Si    0.76835   0.90689   0.43153   0.01267  Uiso   1.00
Si3221 Si    0.75989   0.92554   0.50477   0.01267  Uiso   1.00
Si3222 Si    0.70725   0.92431   0.50446   0.01267  Uiso   1.00
Si3223 Si    0.69098   0.90704   0.43293   0.01267  Uiso   1.00
Si3224 Si    0.72765   0.92090   0.38320   0.01267  Uiso   1.00
Si3225 Si    0.80782   0.80725   0.38670   0.01267  Uiso   1.00
Si3226 Si    0.76841   0.82772   0.43435   0.01267  Uiso   1.00
Si3227 Si    0.75679   0.80554   0.50555   0.01267  Uiso   1.00
Si3228 Si    0.70563   0.80593   0.50587   0.01267  Uiso   1.00
Si3229 Si    0.68827   0.82789   0.43530   0.01267  Uiso   1.00
Si3230 Si    0.72704   0.80574   0.39096   0.01267  Uiso   1.00
Si3231 Si    0.69177   0.86423   0.55050   0.01267  Uiso   1.00
Si3232 Si    0.73081   0.87849   0.59940   0.01267  Uiso   1.00
Si3233 Si    0.73853   0.85933   0.33926   0.01267  Uiso   1.00
Si3234 Si    0.79078   0.86049   0.33848   0.01267  Uiso   1.00
Si3235 Si    0.80673   0.87867   0.60103   0.01267  Uiso   1.00
Si3236 Si    0.77101   0.86419   0.54970   0.01267  Uiso   1.00
Si3237 Si    0.69174   0.97730   0.55446   0.01267  Uiso   1.00
Si3238 Si    0.73184   0.95772   0.60180   0.01267  Uiso   1.00
Si3239 Si    0.74347   0.97974   0.33952   0.01267  Uiso   1.00
Si3240 Si    0.79450   0.97979   0.33817   0.01267  Uiso   1.00
Si3241 Si    0.81124   0.95789   0.60103   0.01267  Uiso   1.00
Si3242 Si    0.77249   0.97916   0.55634   0.01267  Uiso   1.00
Si3243 Si    0.85852   0.67124   0.61145   0.01267  Uiso   1.00
Si3244 Si    0.89749   0.65602   0.56220   0.01267  Uiso   1.00
Si3245 Si    0.90607   0.67512   0.48942   0.01267  Uiso   1.00
Si3246 Si    0.95877   0.67459   0.48971   0.01267  Uiso   1.00
Si3247 Si    0.97546   0.65628   0.56054   0.01267  Uiso   1.00
Si3248 Si    0.93834   0.66942   0.61023   0.01267  Uiso   1.00
Si3249 Si    0.85836   0.55729   0.60717   0.01267  Uiso   1.00
Si3250 Si    0.89754   0.57722   0.55898   0.01267  Uiso   1.00
Si3251 Si    0.90959   0.55516   0.48756   0.01267  Uiso   1.00
Si3252 Si    0.96064   0.55508   0.48980   0.01267  Uiso   1.00
Si3253 Si    0.97729   0.57696   0.56018   0.01267  Uiso   1.00
Si3254 Si    0.93806   0.55663   0.60422   0.01267  Uiso   1.00
Si3255 Si    0.97426   0.61333   0.44517   0.01267  Uiso   1.00
Si3256 Si    0.93527   0.62750   0.39645   0.01267  Uiso   1.00
Si3257 Si    0.92649   0.60990   0.65655   0.01267  Uiso   1.00
Si3258 Si    0.87380   0.61092   0.65704   0.01267  Uiso   1.00
Si3259 Si    0.85722   0.62818   0.39475   0.01267  Uiso   1.00
Si3260 Si    0.89421   0.61448   0.44428   0.01267  Uiso   1.00
Si3261 Si    0.97401   0.72839   0.43993   0.01267  Uiso   1.00
Si3262 Si    0.93530   0.70635   0.39217   0.01267  Uiso   1.00
Si3263 Si    0.92309   0.72814   0.65381   0.01267  Uiso   1.00
Si3264 Si    0.87200   0.72920   0.65595   0.01267  Uiso   1.00
Si3265 Si    0.85519   0.70739   0.39332   0.01267  Uiso   1.00
Si3266 Si    0.89466   0.72794   0.43651   0.01267  Uiso   1.00
Si3267 Si    0.85647   0.86263   0.61277   0.01267  Uiso   1.00
Si3268 Si    0.90619   0.86101   0.48699   0.01267  Uiso   1.00
Si3269 Si    0.95832   0.86063   0.48929   0.01267  Uiso   1.00
Si3270 Si    0.97471   0.87844   0.55988   0.01267  Uiso   1.00
Si3271 Si    0.93860   0.86452   0.61075   0.01267  Uiso   1.00
Si3272 Si    0.85965   0.98070   0.60587   0.01267  Uiso   1.00
Si3273 Si    0.89594   0.95916   0.55849   0.01267  Uiso   1.00
Si3274 Si    0.90962   0.97759   0.48624   0.01267  Uiso   1.00
Si3275 Si    0.96069   0.97888   0.49009   0.01267  Uiso   1.00
Si3276 Si    0.97662   0.95751   0.56062   0.01267  Uiso   1.00
Si3277 Si    0.93689   0.97842   0.60314   0.01267  Uiso   1.00
Si3278 Si    0.97514   0.92051   0.44562   0.01267  Uiso   1.00
Si3279 Si    0.93657   0.90671   0.39496   0.01267  Uiso   1.00
Si3280 Si    0.92742   0.92403   0.65673   0.01267  Uiso   1.00
Si3281 Si    0.87499   0.92479   0.65404   0.01267  Uiso   1.00
Si3282 Si    0.85672   0.90644   0.39128   0.01267  Uiso   1.00
Si3283 Si    0.89443   0.92013   0.43974   0.01267  Uiso   1.00
Si3284 Si    0.97319   0.80632   0.44077   0.01267  Uiso   1.00
Si3285 Si    0.93539   0.82776   0.39151   0.01267  Uiso   1.00
Si3286 Si    0.92384   0.80566   0.65370   0.01267  Uiso   1.00
Si3287 Si    0.87286   0.80555   0.65821   0.01267  Uiso   1.00
Si3288 Si    0.85636   0.82750   0.39476   0.01267  Uiso   1.00
Si3289 Si    0.89555   0.80657   0.43658   0.01267  Uiso   1.00
Si3290 Si    0.80824   0.61413   0.38181   0.01267  Uiso   1.00
Si3291 Si    0.76923   0.62878   0.43034   0.01267  Uiso   1.00
Si3292 Si    0.75989   0.61147   0.50379   0.01267  Uiso   1.00
Si3293 Si    0.70728   0.60984   0.50459   0.01267  Uiso   1.00
Si3294 Si    0.69017   0.62786   0.43427   0.01267  Uiso   1.00
Si3295 Si    0.72749   0.61511   0.38464   0.01267  Uiso   1.00
Si3296 Si    0.80680   0.72972   0.38734   0.01267  Uiso   1.00
Si3297 Si    0.76895   0.70766   0.43487   0.01267  Uiso   1.00
Si3298 Si    0.75658   0.72806   0.50709   0.01267  Uiso   1.00
Si3299 Si    0.70557   0.72898   0.50358   0.01267  Uiso   1.00
Si3300 Si    0.68919   0.70688   0.43338   0.01267  Uiso   1.00
Si3301 Si    0.72837   0.72748   0.38949   0.01267  Uiso   1.00
Si3302 Si    0.69133   0.67092   0.54866   0.01267  Uiso   1.00
Si3303 Si    0.73034   0.65642   0.59737   0.01267  Uiso   1.00
Si3304 Si    0.73967   0.67379   0.33740   0.01267  Uiso   1.00
Si3305 Si    0.79222   0.67511   0.33780   0.01267  Uiso   1.00
Si3306 Si    0.80911   0.65708   0.60093   0.01267  Uiso   1.00
Si3307 Si    0.77201   0.67019   0.55108   0.01267  Uiso   1.00
Si3308 Si    0.69270   0.55522   0.55464   0.01267  Uiso   1.00
Si3309 Si    0.73079   0.57725   0.60196   0.01267  Uiso   1.00
Si3310 Si    0.74348   0.55712   0.34093   0.01267  Uiso   1.00
Si3311 Si    0.79436   0.55621   0.33703   0.01267  Uiso   1.00
Si3312 Si    0.81015   0.57843   0.60011   0.01267  Uiso   1.00
Si3313 Si    0.77131   0.55753   0.55575   0.01267  Uiso   1.00
Al3314 Al    0.89696   0.87991   0.56176   0.01267  Uiso   1.00
O3315  O     0.78935   0.92143   0.41196   0.01267  Uiso   1.00
O3316  O     0.76635   0.92660   0.46615   0.01267  Uiso   1.00
O3317  O     0.73354   0.92470   0.50963   0.01267  Uiso   1.00
O3318  O     0.70120   0.92384   0.46581   0.01267  Uiso   1.00
O3319  O     0.70395   0.92097   0.40100   0.01267  Uiso   1.00
O3320  O     0.74635   0.91265   0.41023   0.01267  Uiso   1.00
O3321  O     0.78853   0.81232   0.41350   0.01267  Uiso   1.00
O3322  O     0.76890   0.81040   0.47035   0.01267  Uiso   1.00
O3323  O     0.73128   0.81678   0.50226   0.01267  Uiso   1.00
O3324  O     0.69339   0.81212   0.47117   0.01267  Uiso   1.00
O3325  O     0.70292   0.80949   0.40734   0.01267  Uiso   1.00
O3326  O     0.74520   0.81989   0.41661   0.01267  Uiso   1.00
O3327  O     0.77155   0.86745   0.43828   0.01267  Uiso   1.00
O3328  O     0.69404   0.86710   0.43552   0.01267  Uiso   1.00
O3329  O     0.80768   0.95708   0.36449   0.01267  Uiso   1.00
O3330  O     0.80169   0.89291   0.35541   0.01267  Uiso   1.00
O3331  O     0.80213   0.82703   0.35285   0.01267  Uiso   1.00
O3332  O     0.73143   0.95725   0.36711   0.01267  Uiso   1.00
O3333  O     0.72790   0.89288   0.35448   0.01267  Uiso   1.00
O3334  O     0.72826   0.82649   0.35670   0.01267  Uiso   1.00
O3335  O     0.99885   0.91696   0.42810   0.01267  Uiso   1.00
O3336  O     0.99591   0.82216   0.42683   0.01267  Uiso   1.00
O3337  O     0.70823   0.86781   0.58156   0.01267  Uiso   1.00
O3338  O     0.73326   0.85786   0.63356   0.01267  Uiso   1.00
O3339  O     0.76478   0.85982   0.34609   0.01267  Uiso   1.00
O3340  O     0.79487   0.86169   0.63251   0.01267  Uiso   1.00
O3341  O     0.79462   0.86629   0.56791   0.01267  Uiso   1.00
O3342  O     0.75153   0.86995   0.57604   0.01267  Uiso   1.00
O3343  O     0.71110   0.97099   0.58097   0.01267  Uiso   1.00
O3344  O     0.73156   0.97570   0.63743   0.01267  Uiso   1.00
O3345  O     0.76898   0.96804   0.33662   0.01267  Uiso   1.00
O3346  O     0.80522   0.97628   0.63525   0.01267  Uiso   1.00
O3347  O     0.79695   0.97348   0.57111   0.01267  Uiso   1.00
O3348  O     0.75463   0.96659   0.58320   0.01267  Uiso   1.00
O3349  O     0.73046   0.91792   0.60714   0.01267  Uiso   1.00
O3350  O     0.80568   0.91861   0.60456   0.01267  Uiso   1.00
O3351  O     0.69422   0.82739   0.53477   0.01267  Uiso   1.00
O3352  O     0.69727   0.89154   0.52222   0.01267  Uiso   1.00
O3353  O     0.69692   0.95768   0.52042   0.01267  Uiso   1.00
O3354  O     0.76891   0.82757   0.53344   0.01267  Uiso   1.00
O3355  O     0.77020   0.89220   0.52107   0.01267  Uiso   1.00
O3356  O     0.76978   0.95849   0.52229   0.01267  Uiso   1.00
O3357  O     0.83208   0.86661   0.59869   0.01267  Uiso   1.00
O3358  O     0.83707   0.96316   0.59327   0.01267  Uiso   1.00
O3359  O     0.87693   0.67053   0.58287   0.01267  Uiso   1.00
O3360  O     0.89927   0.67668   0.52797   0.01267  Uiso   1.00
O3361  O     0.93245   0.67257   0.48532   0.01267  Uiso   1.00
O3362  O     0.96536   0.67439   0.52822   0.01267  Uiso   1.00
O3363  O     0.96224   0.66848   0.59292   0.01267  Uiso   1.00
O3364  O     0.91987   0.66069   0.58298   0.01267  Uiso   1.00
O3365  O     0.87765   0.56143   0.58014   0.01267  Uiso   1.00
O3366  O     0.89778   0.55981   0.52308   0.01267  Uiso   1.00
O3367  O     0.93511   0.56689   0.49027   0.01267  Uiso   1.00
O3368  O     0.97064   0.55793   0.52655   0.01267  Uiso   1.00
O3369  O     0.96280   0.56251   0.59050   0.01267  Uiso   1.00
O3370  O     0.92084   0.57087   0.57714   0.01267  Uiso   1.00
O3371  O     0.89375   0.61690   0.55467   0.01267  Uiso   1.00
O3372  O     0.97299   0.61645   0.55583   0.01267  Uiso   1.00
O3373  O     0.85860   0.70749   0.62912   0.01267  Uiso   1.00
O3374  O     0.86285   0.64300   0.63923   0.01267  Uiso   1.00
O3375  O     0.86460   0.57705   0.64069   0.01267  Uiso   1.00
O3376  O     0.93455   0.70630   0.62519   0.01267  Uiso   1.00
O3377  O     0.93765   0.64246   0.63994   0.01267  Uiso   1.00
O3378  O     0.93501   0.57627   0.63880   0.01267  Uiso   1.00
O3379  O     0.66757   0.66664   0.56590   0.01267  Uiso   1.00
O3380  O     0.66968   0.57036   0.56796   0.01267  Uiso   1.00
O3381  O     0.95570   0.61223   0.41678   0.01267  Uiso   1.00
O3382  O     0.93337   0.60810   0.36164   0.01267  Uiso   1.00
O3383  O     0.90011   0.61299   0.65258   0.01267  Uiso   1.00
O3384  O     0.86722   0.61042   0.36222   0.01267  Uiso   1.00
O3385  O     0.87031   0.61539   0.42697   0.01267  Uiso   1.00
O3386  O     0.91274   0.62250   0.41681   0.01267  Uiso   1.00
O3387  O     0.95495   0.72361   0.41261   0.01267  Uiso   1.00
O3388  O     0.93513   0.72215   0.35552   0.01267  Uiso   1.00
O3389  O     0.89741   0.71723   0.65710   0.01267  Uiso   1.00
O3390  O     0.86123   0.72536   0.35875   0.01267  Uiso   1.00
O3391  O     0.86983   0.72310   0.42280   0.01267  Uiso   1.00
O3392  O     0.91177   0.71293   0.40972   0.01267  Uiso   1.00
O3393  O     0.93947   0.66672   0.38994   0.01267  Uiso   1.00
O3394  O     0.86003   0.66802   0.39042   0.01267  Uiso   1.00
O3395  O     0.97452   0.57820   0.46468   0.01267  Uiso   1.00
O3396  O     0.96977   0.64304   0.47130   0.01267  Uiso   1.00
O3397  O     0.96782   0.70885   0.47367   0.01267  Uiso   1.00
O3398  O     0.89759   0.57786   0.45999   0.01267  Uiso   1.00
O3399  O     0.89503   0.64239   0.47309   0.01267  Uiso   1.00
O3400  O     0.89734   0.70873   0.47147   0.01267  Uiso   1.00
O3401  O     0.83165   0.61850   0.40000   0.01267  Uiso   1.00
O3402  O     0.82947   0.71387   0.40131   0.01267  Uiso   1.00
O3403  O     0.87293   0.85663   0.57980   0.01267  Uiso   1.00
O3404  O     0.89837   0.86067   0.52430   0.01267  Uiso   1.00
O3405  O     0.93253   0.86732   0.48273   0.01267  Uiso   1.00
O3406  O     0.96393   0.86023   0.52813   0.01267  Uiso   1.00
O3407  O     0.96243   0.86596   0.59279   0.01267  Uiso   1.00
O3408  O     0.91886   0.87173   0.58630   0.01267  Uiso   1.00
O3409  O     0.87736   0.98202   0.57635   0.01267  Uiso   1.00
O3410  O     0.89674   0.97089   0.52027   0.01267  Uiso   1.00
O3411  O     0.93524   0.96688   0.49038   0.01267  Uiso   1.00
O3412  O     0.97076   0.97710   0.52687   0.01267  Uiso   1.00
O3413  O     0.96177   0.97177   0.59050   0.01267  Uiso   1.00
O3414  O     0.91988   0.96707   0.57471   0.01267  Uiso   1.00
O3415  O     0.88946   0.92088   0.56223   0.01267  Uiso   1.00
O3416  O     0.97207   0.91830   0.55513   0.01267  Uiso   1.00
O3417  O     0.85790   0.82962   0.63514   0.01267  Uiso   1.00
O3418  O     0.86521   0.89522   0.63079   0.01267  Uiso   1.00
O3419  O     0.86934   0.96026   0.63730   0.01267  Uiso   1.00
O3420  O     0.93648   0.82731   0.62639   0.01267  Uiso   1.00
O3421  O     0.93892   0.89181   0.64046   0.01267  Uiso   1.00
O3422  O     0.93289   0.95802   0.63702   0.01267  Uiso   1.00
O3423  O     0.66705   0.86897   0.56358   0.01267  Uiso   1.00
O3424  O     0.66883   0.96397   0.57004   0.01267  Uiso   1.00
O3425  O     0.95631   0.92036   0.41771   0.01267  Uiso   1.00
O3426  O     0.93675   0.92736   0.36066   0.01267  Uiso   1.00
O3427  O     0.90096   0.91887   0.65774   0.01267  Uiso   1.00
O3428  O     0.86324   0.92326   0.35631   0.01267  Uiso   1.00
O3429  O     0.87095   0.92216   0.42098   0.01267  Uiso   1.00
O3430  O     0.91321   0.91257   0.41266   0.01267  Uiso   1.00
O3431  O     0.95453   0.81051   0.41290   0.01267  Uiso   1.00
O3432  O     0.93556   0.81028   0.35576   0.01267  Uiso   1.00
O3433  O     0.89819   0.81756   0.65619   0.01267  Uiso   1.00
O3434  O     0.86377   0.80701   0.36216   0.01267  Uiso   1.00
O3435  O     0.87022   0.81355   0.42589   0.01267  Uiso   1.00
O3436  O     0.91151   0.82127   0.40812   0.01267  Uiso   1.00
O3437  O     0.93981   0.86725   0.38811   0.01267  Uiso   1.00
O3438  O     0.86100   0.86664   0.38871   0.01267  Uiso   1.00
O3439  O     0.97459   0.95545   0.46540   0.01267  Uiso   1.00
O3440  O     0.97225   0.88988   0.47132   0.01267  Uiso   1.00
O3441  O     0.96565   0.82484   0.47439   0.01267  Uiso   1.00
O3442  O     0.89871   0.95578   0.45707   0.01267  Uiso   1.00
O3443  O     0.89365   0.89021   0.46643   0.01267  Uiso   1.00
O3444  O     0.90022   0.82472   0.47130   0.01267  Uiso   1.00
O3445  O     0.83107   0.91377   0.39874   0.01267  Uiso   1.00
O3446  O     0.83056   0.82127   0.40222   0.01267  Uiso   1.00
O3447  O     0.78892   0.61226   0.40918   0.01267  Uiso   1.00
O3448  O     0.76793   0.61046   0.46582   0.01267  Uiso   1.00
O3449  O     0.73352   0.61589   0.50626   0.01267  Uiso   1.00
O3450  O     0.69924   0.60870   0.46670   0.01267  Uiso   1.00
O3451  O     0.70366   0.61560   0.40216   0.01267  Uiso   1.00
O3452  O     0.74604   0.62402   0.41173   0.01267  Uiso   1.00
O3453  O     0.78836   0.72726   0.41591   0.01267  Uiso   1.00
O3454  O     0.76858   0.72138   0.47220   0.01267  Uiso   1.00
O3455  O     0.73104   0.71682   0.50434   0.01267  Uiso   1.00
O3456  O     0.69633   0.72703   0.46627   0.01267  Uiso   1.00
O3457  O     0.70368   0.71971   0.40232   0.01267  Uiso   1.00
O3458  O     0.74548   0.71458   0.41741   0.01267  Uiso   1.00
O3459  O     0.77404   0.66816   0.43483   0.01267  Uiso   1.00
O3460  O     0.69332   0.66758   0.43960   0.01267  Uiso   1.00
O3461  O     0.80883   0.57989   0.36078   0.01267  Uiso   1.00
O3462  O     0.80469   0.64523   0.35684   0.01267  Uiso   1.00
O3463  O     0.79863   0.71037   0.35453   0.01267  Uiso   1.00
O3464  O     0.73149   0.57837   0.36953   0.01267  Uiso   1.00
O3465  O     0.72786   0.64248   0.35525   0.01267  Uiso   1.00
O3466  O     0.73272   0.70847   0.35489   0.01267  Uiso   1.00
O3467  O     0.99795   0.61894   0.42804   0.01267  Uiso   1.00
O3468  O     0.99692   0.71399   0.42517   0.01267  Uiso   1.00
O3469  O     0.71014   0.67222   0.57680   0.01267  Uiso   1.00
O3470  O     0.73186   0.67503   0.63268   0.01267  Uiso   1.00
O3471  O     0.76604   0.66889   0.34002   0.01267  Uiso   1.00
O3472  O     0.80003   0.67665   0.63310   0.01267  Uiso   1.00
O3473  O     0.79579   0.66930   0.56866   0.01267  Uiso   1.00
O3474  O     0.75323   0.66195   0.57802   0.01267  Uiso   1.00
O3475  O     0.71080   0.55870   0.58355   0.01267  Uiso   1.00
O3476  O     0.73156   0.56342   0.63925   0.01267  Uiso   1.00
O3477  O     0.76900   0.56871   0.33819   0.01267  Uiso   1.00
O3478  O     0.80328   0.55774   0.63281   0.01267  Uiso   1.00
O3479  O     0.79583   0.56575   0.56895   0.01267  Uiso   1.00
O3480  O     0.75385   0.56938   0.58361   0.01267  Uiso   1.00
O3481  O     0.72636   0.61694   0.60227   0.01267  Uiso   1.00
O3482  O     0.80561   0.61756   0.60682   0.01267  Uiso   1.00
O3483  O     0.69141   0.70544   0.52793   0.01267  Uiso   1.00
O3484  O     0.69519   0.64006   0.52365   0.01267  Uiso   1.00
O3485  O     0.70088   0.57477   0.52178   0.01267  Uiso   1.00
O3486  O     0.76852   0.70711   0.53597   0.01267  Uiso   1.00
O3487  O     0.77146   0.64296   0.52169   0.01267  Uiso   1.00
O3488  O     0.76704   0.57696   0.52136   0.01267  Uiso   1.00
O3489  O     0.83474   0.66553   0.59477   0.01267  Uiso   1.00
O3490  O     0.83583   0.57232   0.59174   0.01267  Uiso   1.00
O3491  O     0.81037   0.76833   0.37757   0.01267  Uiso   1.00
O3492  O     0.73160   0.76690   0.38307   0.01267  Uiso   1.00
O3493  O     0.75863   0.76700   0.51674   0.01267  Uiso   1.00
O3494  O     0.70374   0.76709   0.51605   0.01267  Uiso   1.00
O3495  O     0.68999   0.51637   0.54543   0.01267  Uiso   1.00
O3496  O     0.76885   0.51819   0.54846   0.01267  Uiso   1.00
O3497  O     0.74198   0.51822   0.35092   0.01267  Uiso   1.00
O3498  O     0.79629   0.51819   0.34992   0.01267  Uiso   1.00
O3499  O     0.85478   0.51866   0.61715   0.01267  Uiso   1.00
O3500  O     0.93376   0.51762   0.61115   0.01267  Uiso   1.00
O3501  O     0.90793   0.51665   0.47625   0.01267  Uiso   1.00
O3502  O     0.96257   0.51699   0.47730   0.01267  Uiso   1.00
O3503  O     0.97657   0.76730   0.44893   0.01267  Uiso   1.00
O3504  O     0.89943   0.76711   0.44195   0.01267  Uiso   1.00
O3505  O     0.92478   0.76682   0.64325   0.01267  Uiso   1.00
O3506  O     0.87021   0.76789   0.64451   0.01267  Uiso   1.00
H3507  H     0.87029   0.83470   0.56866   0.01267  Uiso   1.00
H3508  H     0.80601   0.77145   0.54993   0.01267  Uiso   1.00
H3509  H     0.83725   0.76659   0.59497   0.01267  Uiso   1.00
H3510  H     0.82210   0.79076   0.49261   0.01267  Uiso   1.00
H3511  H     0.86504   0.80035   0.49608   0.01267  Uiso   1.00
C3512  C     0.83193   0.78716   0.51464   0.01267  Uiso   1.00
C3513  C     0.85409   0.79220   0.51547   0.01267  Uiso   1.00
C3514  C     0.82325   0.77679   0.54561   0.01267  Uiso   1.00
C3515  C     0.83894   0.77421   0.56950   0.01267  Uiso   1.00
S3516  S     0.86450   0.78357   0.55392   0.01267  Uiso   1.00
Si3517 Si    0.14065   0.42119   0.71603   0.01267  Uiso   1.00
Si3518 Si    0.10168   0.40689   0.76486   0.01267  Uiso   1.00
Si3519 Si    0.09322   0.42554   0.83811   0.01267  Uiso   1.00
Si3520 Si    0.04058   0.42431   0.83779   0.01267  Uiso   1.00
Si3521 Si    0.02431   0.40704   0.76626   0.01267  Uiso   1.00
Si3522 Si    0.06098   0.42090   0.71654   0.01267  Uiso   1.00
Si3523 Si    0.14115   0.30725   0.72003   0.01267  Uiso   1.00
Si3524 Si    0.10174   0.32772   0.76768   0.01267  Uiso   1.00
Si3525 Si    0.09012   0.30554   0.83889   0.01267  Uiso   1.00
Si3526 Si    0.03896   0.30593   0.83920   0.01267  Uiso   1.00
Si3527 Si    0.02160   0.32789   0.76863   0.01267  Uiso   1.00
Si3528 Si    0.06038   0.30574   0.72430   0.01267  Uiso   1.00
Si3529 Si    0.02510   0.36423   0.88384   0.01267  Uiso   1.00
Si3530 Si    0.06414   0.37849   0.93274   0.01267  Uiso   1.00
Si3531 Si    0.07186   0.35933   0.67259   0.01267  Uiso   1.00
Si3532 Si    0.12411   0.36049   0.67182   0.01267  Uiso   1.00
Si3533 Si    0.14007   0.37867   0.93436   0.01267  Uiso   1.00
Si3534 Si    0.10434   0.36419   0.88303   0.01267  Uiso   1.00
Si3535 Si    0.02508   0.47730   0.88779   0.01267  Uiso   1.00
Si3536 Si    0.06517   0.45772   0.93513   0.01267  Uiso   1.00
Si3537 Si    0.07681   0.47974   0.67285   0.01267  Uiso   1.00
Si3538 Si    0.12784   0.47979   0.67150   0.01267  Uiso   1.00
Si3539 Si    0.14458   0.45789   0.93436   0.01267  Uiso   1.00
Si3540 Si    0.10582   0.47916   0.88968   0.01267  Uiso   1.00
Si3541 Si    0.19185   0.17124   0.94478   0.01267  Uiso   1.00
Si3542 Si    0.23082   0.15602   0.89553   0.01267  Uiso   1.00
Si3543 Si    0.23940   0.17512   0.82275   0.01267  Uiso   1.00
Si3544 Si    0.29210   0.17459   0.82304   0.01267  Uiso   1.00
Si3545 Si    0.30880   0.15628   0.89387   0.01267  Uiso   1.00
Si3546 Si    0.27167   0.16942   0.94357   0.01267  Uiso   1.00
Si3547 Si    0.19169   0.05729   0.94051   0.01267  Uiso   1.00
Si3548 Si    0.23087   0.07722   0.89231   0.01267  Uiso   1.00
Si3549 Si    0.24292   0.05516   0.82089   0.01267  Uiso   1.00
Si3550 Si    0.29397   0.05508   0.82313   0.01267  Uiso   1.00
Si3551 Si    0.31062   0.07696   0.89352   0.01267  Uiso   1.00
Si3552 Si    0.27139   0.05663   0.93756   0.01267  Uiso   1.00
Si3553 Si    0.30760   0.11333   0.77850   0.01267  Uiso   1.00
Si3554 Si    0.26860   0.12750   0.72978   0.01267  Uiso   1.00
Si3555 Si    0.25982   0.10990   0.98989   0.01267  Uiso   1.00
Si3556 Si    0.20714   0.11092   0.99038   0.01267  Uiso   1.00
Si3557 Si    0.19055   0.12818   0.72809   0.01267  Uiso   1.00
Si3558 Si    0.22754   0.11448   0.77761   0.01267  Uiso   1.00
Si3559 Si    0.30734   0.22839   0.77327   0.01267  Uiso   1.00
Si3560 Si    0.26864   0.20635   0.72550   0.01267  Uiso   1.00
Si3561 Si    0.25642   0.22814   0.98715   0.01267  Uiso   1.00
Si3562 Si    0.20533   0.22920   0.98928   0.01267  Uiso   1.00
Si3563 Si    0.18853   0.20739   0.72666   0.01267  Uiso   1.00
Si3564 Si    0.22799   0.22794   0.76984   0.01267  Uiso   1.00
Si3565 Si    0.18980   0.36263   0.94610   0.01267  Uiso   1.00
Si3566 Si    0.23952   0.36101   0.82032   0.01267  Uiso   1.00
Si3567 Si    0.29165   0.36063   0.82262   0.01267  Uiso   1.00
Si3568 Si    0.30804   0.37844   0.89322   0.01267  Uiso   1.00
Si3569 Si    0.27193   0.36452   0.94408   0.01267  Uiso   1.00
Si3570 Si    0.19298   0.48070   0.93920   0.01267  Uiso   1.00
Si3571 Si    0.22927   0.45916   0.89182   0.01267  Uiso   1.00
Si3572 Si    0.24295   0.47759   0.81958   0.01267  Uiso   1.00
Si3573 Si    0.29402   0.47888   0.82342   0.01267  Uiso   1.00
Si3574 Si    0.30995   0.45751   0.89396   0.01267  Uiso   1.00
Si3575 Si    0.27023   0.47842   0.93647   0.01267  Uiso   1.00
Si3576 Si    0.30847   0.42051   0.77895   0.01267  Uiso   1.00
Si3577 Si    0.26991   0.40671   0.72829   0.01267  Uiso   1.00
Si3578 Si    0.26076   0.42403   0.99006   0.01267  Uiso   1.00
Si3579 Si    0.20832   0.42479   0.98738   0.01267  Uiso   1.00
Si3580 Si    0.19006   0.40644   0.72462   0.01267  Uiso   1.00
Si3581 Si    0.22776   0.42013   0.77307   0.01267  Uiso   1.00
Si3582 Si    0.30653   0.30632   0.77410   0.01267  Uiso   1.00
Si3583 Si    0.26872   0.32776   0.72484   0.01267  Uiso   1.00
Si3584 Si    0.25718   0.30566   0.98703   0.01267  Uiso   1.00
Si3585 Si    0.20620   0.30555   0.99155   0.01267  Uiso   1.00
Si3586 Si    0.18970   0.32750   0.72809   0.01267  Uiso   1.00
Si3587 Si    0.22888   0.30657   0.76991   0.01267  Uiso   1.00
Si3588 Si    0.14157   0.11413   0.71514   0.01267  Uiso   1.00
Si3589 Si    0.10257   0.12878   0.76367   0.01267  Uiso   1.00
Si3590 Si    0.09323   0.11147   0.83713   0.01267  Uiso   1.00
Si3591 Si    0.04062   0.10984   0.83793   0.01267  Uiso   1.00
Si3592 Si    0.02350   0.12786   0.76760   0.01267  Uiso   1.00
Si3593 Si    0.06082   0.11511   0.71797   0.01267  Uiso   1.00
Si3594 Si    0.14013   0.22972   0.72068   0.01267  Uiso   1.00
Si3595 Si    0.10228   0.20766   0.76820   0.01267  Uiso   1.00
Si3596 Si    0.08992   0.22806   0.84042   0.01267  Uiso   1.00
Si3597 Si    0.03891   0.22898   0.83691   0.01267  Uiso   1.00
Si3598 Si    0.02252   0.20688   0.76672   0.01267  Uiso   1.00
Si3599 Si    0.06171   0.22748   0.72282   0.01267  Uiso   1.00
Si3600 Si    0.02466   0.17092   0.88199   0.01267  Uiso   1.00
Si3601 Si    0.06368   0.15642   0.93071   0.01267  Uiso   1.00
Si3602 Si    0.07301   0.17379   0.67073   0.01267  Uiso   1.00
Si3603 Si    0.12555   0.17511   0.67113   0.01267  Uiso   1.00
Si3604 Si    0.14244   0.15708   0.93426   0.01267  Uiso   1.00
Si3605 Si    0.10534   0.17019   0.88442   0.01267  Uiso   1.00
Si3606 Si    0.02604   0.05522   0.88797   0.01267  Uiso   1.00
Si3607 Si    0.06412   0.07725   0.93529   0.01267  Uiso   1.00
Si3608 Si    0.07682   0.05712   0.67426   0.01267  Uiso   1.00
Si3609 Si    0.12769   0.05621   0.67036   0.01267  Uiso   1.00
Si3610 Si    0.14348   0.07843   0.93344   0.01267  Uiso   1.00
Si3611 Si    0.10465   0.05753   0.88908   0.01267  Uiso   1.00
Al3612 Al    0.23030   0.37991   0.89509   0.01267  Uiso   1.00
O3613  O     0.12268   0.42143   0.74529   0.01267  Uiso   1.00
O3614  O     0.09968   0.42660   0.79949   0.01267  Uiso   1.00
O3615  O     0.06688   0.42470   0.84297   0.01267  Uiso   1.00
O3616  O     0.03454   0.42384   0.79914   0.01267  Uiso   1.00
O3617  O     0.03728   0.42097   0.73434   0.01267  Uiso   1.00
O3618  O     0.07969   0.41265   0.74357   0.01267  Uiso   1.00
O3619  O     0.12187   0.31232   0.74683   0.01267  Uiso   1.00
O3620  O     0.10224   0.31040   0.80368   0.01267  Uiso   1.00
O3621  O     0.06462   0.31678   0.83560   0.01267  Uiso   1.00
O3622  O     0.02672   0.31212   0.80450   0.01267  Uiso   1.00
O3623  O     0.03625   0.30949   0.74067   0.01267  Uiso   1.00
O3624  O     0.07854   0.31989   0.74995   0.01267  Uiso   1.00
O3625  O     0.10488   0.36745   0.77161   0.01267  Uiso   1.00
O3626  O     0.02737   0.36710   0.76886   0.01267  Uiso   1.00
O3627  O     0.14101   0.45708   0.69782   0.01267  Uiso   1.00
O3628  O     0.13502   0.39291   0.68875   0.01267  Uiso   1.00
O3629  O     0.13546   0.32703   0.68618   0.01267  Uiso   1.00
O3630  O     0.06476   0.45725   0.70045   0.01267  Uiso   1.00
O3631  O     0.06123   0.39288   0.68781   0.01267  Uiso   1.00
O3632  O     0.06160   0.32649   0.69003   0.01267  Uiso   1.00
O3633  O     0.33218   0.41696   0.76143   0.01267  Uiso   1.00
O3634  O     0.32925   0.32216   0.76016   0.01267  Uiso   1.00
O3635  O     0.04156   0.36781   0.91489   0.01267  Uiso   1.00
O3636  O     0.06659   0.35786   0.96689   0.01267  Uiso   1.00
O3637  O     0.09811   0.35982   0.67943   0.01267  Uiso   1.00
O3638  O     0.12820   0.36169   0.96584   0.01267  Uiso   1.00
O3639  O     0.12795   0.36629   0.90125   0.01267  Uiso   1.00
O3640  O     0.08487   0.36995   0.90938   0.01267  Uiso   1.00
O3641  O     0.04443   0.47099   0.91430   0.01267  Uiso   1.00
O3642  O     0.06490   0.47570   0.97076   0.01267  Uiso   1.00
O3643  O     0.10231   0.46804   0.66996   0.01267  Uiso   1.00
O3644  O     0.13855   0.47628   0.96859   0.01267  Uiso   1.00
O3645  O     0.13028   0.47348   0.90444   0.01267  Uiso   1.00
O3646  O     0.08796   0.46659   0.91653   0.01267  Uiso   1.00
O3647  O     0.06379   0.41792   0.94047   0.01267  Uiso   1.00
O3648  O     0.13901   0.41861   0.93790   0.01267  Uiso   1.00
O3649  O     0.02756   0.32739   0.86810   0.01267  Uiso   1.00
O3650  O     0.03060   0.39154   0.85555   0.01267  Uiso   1.00
O3651  O     0.03025   0.45768   0.85376   0.01267  Uiso   1.00
O3652  O     0.10224   0.32757   0.86677   0.01267  Uiso   1.00
O3653  O     0.10353   0.39220   0.85440   0.01267  Uiso   1.00
O3654  O     0.10311   0.45849   0.85563   0.01267  Uiso   1.00
O3655  O     0.16542   0.36661   0.93202   0.01267  Uiso   1.00
O3656  O     0.17040   0.46316   0.92661   0.01267  Uiso   1.00
O3657  O     0.21026   0.17053   0.91620   0.01267  Uiso   1.00
O3658  O     0.23261   0.17668   0.86130   0.01267  Uiso   1.00
O3659  O     0.26578   0.17257   0.81865   0.01267  Uiso   1.00
O3660  O     0.29869   0.17439   0.86155   0.01267  Uiso   1.00
O3661  O     0.29557   0.16848   0.92626   0.01267  Uiso   1.00
O3662  O     0.25320   0.16069   0.91632   0.01267  Uiso   1.00
O3663  O     0.21098   0.06143   0.91347   0.01267  Uiso   1.00
O3664  O     0.23112   0.05981   0.85641   0.01267  Uiso   1.00
O3665  O     0.26844   0.06689   0.82360   0.01267  Uiso   1.00
O3666  O     0.30397   0.05793   0.85988   0.01267  Uiso   1.00
O3667  O     0.29613   0.06251   0.92383   0.01267  Uiso   1.00
O3668  O     0.25417   0.07087   0.91047   0.01267  Uiso   1.00
O3669  O     0.22708   0.11690   0.88800   0.01267  Uiso   1.00
O3670  O     0.30633   0.11645   0.88917   0.01267  Uiso   1.00
O3671  O     0.19193   0.20749   0.96245   0.01267  Uiso   1.00
O3672  O     0.19618   0.14300   0.97256   0.01267  Uiso   1.00
O3673  O     0.19793   0.07705   0.97402   0.01267  Uiso   1.00
O3674  O     0.26788   0.20630   0.95852   0.01267  Uiso   1.00
O3675  O     0.27099   0.14246   0.97327   0.01267  Uiso   1.00
O3676  O     0.26834   0.07627   0.97213   0.01267  Uiso   1.00
O3677  O     0.00091   0.16664   0.89923   0.01267  Uiso   1.00
O3678  O     0.00301   0.07036   0.90129   0.01267  Uiso   1.00
O3679  O     0.28903   0.11223   0.75011   0.01267  Uiso   1.00
O3680  O     0.26670   0.10810   0.69497   0.01267  Uiso   1.00
O3681  O     0.23344   0.11299   0.98591   0.01267  Uiso   1.00
O3682  O     0.20055   0.11042   0.69555   0.01267  Uiso   1.00
O3683  O     0.20364   0.11539   0.76030   0.01267  Uiso   1.00
O3684  O     0.24607   0.12250   0.75015   0.01267  Uiso   1.00
O3685  O     0.28829   0.22361   0.74595   0.01267  Uiso   1.00
O3686  O     0.26846   0.22215   0.68885   0.01267  Uiso   1.00
O3687  O     0.23075   0.21723   0.99043   0.01267  Uiso   1.00
O3688  O     0.19456   0.22536   0.69208   0.01267  Uiso   1.00
O3689  O     0.20316   0.22310   0.75614   0.01267  Uiso   1.00
O3690  O     0.24511   0.21293   0.74306   0.01267  Uiso   1.00
O3691  O     0.27281   0.16672   0.72327   0.01267  Uiso   1.00
O3692  O     0.19336   0.16802   0.72375   0.01267  Uiso   1.00
O3693  O     0.30786   0.07820   0.79801   0.01267  Uiso   1.00
O3694  O     0.30310   0.14304   0.80463   0.01267  Uiso   1.00
O3695  O     0.30115   0.20885   0.80701   0.01267  Uiso   1.00
O3696  O     0.23093   0.07786   0.79332   0.01267  Uiso   1.00
O3697  O     0.22836   0.14239   0.80642   0.01267  Uiso   1.00
O3698  O     0.23067   0.20873   0.80480   0.01267  Uiso   1.00
O3699  O     0.16499   0.11850   0.73333   0.01267  Uiso   1.00
O3700  O     0.16280   0.21387   0.73464   0.01267  Uiso   1.00
O3701  O     0.20626   0.35663   0.91314   0.01267  Uiso   1.00
O3702  O     0.23171   0.36067   0.85763   0.01267  Uiso   1.00
O3703  O     0.26586   0.36732   0.81606   0.01267  Uiso   1.00
O3704  O     0.29727   0.36023   0.86146   0.01267  Uiso   1.00
O3705  O     0.29576   0.36596   0.92612   0.01267  Uiso   1.00
O3706  O     0.25219   0.37173   0.91963   0.01267  Uiso   1.00
O3707  O     0.21069   0.48202   0.90968   0.01267  Uiso   1.00
O3708  O     0.23008   0.47089   0.85361   0.01267  Uiso   1.00
O3709  O     0.26857   0.46688   0.82371   0.01267  Uiso   1.00
O3710  O     0.30409   0.47710   0.86021   0.01267  Uiso   1.00
O3711  O     0.29511   0.47177   0.92383   0.01267  Uiso   1.00
O3712  O     0.25322   0.46707   0.90804   0.01267  Uiso   1.00
O3713  O     0.22280   0.42088   0.89557   0.01267  Uiso   1.00
O3714  O     0.30541   0.41830   0.88847   0.01267  Uiso   1.00
O3715  O     0.19123   0.32962   0.96848   0.01267  Uiso   1.00
O3716  O     0.19855   0.39522   0.96412   0.01267  Uiso   1.00
O3717  O     0.20268   0.46026   0.97063   0.01267  Uiso   1.00
O3718  O     0.26982   0.32731   0.95973   0.01267  Uiso   1.00
O3719  O     0.27226   0.39181   0.97379   0.01267  Uiso   1.00
O3720  O     0.26622   0.45802   0.97035   0.01267  Uiso   1.00
O3721  O     0.00038   0.36897   0.89692   0.01267  Uiso   1.00
O3722  O     0.00217   0.46397   0.90337   0.01267  Uiso   1.00
O3723  O     0.28964   0.42036   0.75105   0.01267  Uiso   1.00
O3724  O     0.27009   0.42736   0.69399   0.01267  Uiso   1.00
O3725  O     0.23429   0.41887   0.99107   0.01267  Uiso   1.00
O3726  O     0.19657   0.42326   0.68964   0.01267  Uiso   1.00
O3727  O     0.20428   0.42216   0.75431   0.01267  Uiso   1.00
O3728  O     0.24654   0.41257   0.74599   0.01267  Uiso   1.00
O3729  O     0.28786   0.31051   0.74623   0.01267  Uiso   1.00
O3730  O     0.26889   0.31028   0.68910   0.01267  Uiso   1.00
O3731  O     0.23153   0.31756   0.98953   0.01267  Uiso   1.00
O3732  O     0.19710   0.30701   0.69549   0.01267  Uiso   1.00
O3733  O     0.20355   0.31355   0.75923   0.01267  Uiso   1.00
O3734  O     0.24484   0.32127   0.74145   0.01267  Uiso   1.00
O3735  O     0.27315   0.36725   0.72145   0.01267  Uiso   1.00
O3736  O     0.19433   0.36664   0.72205   0.01267  Uiso   1.00
O3737  O     0.30793   0.45545   0.79873   0.01267  Uiso   1.00
O3738  O     0.30558   0.38988   0.80465   0.01267  Uiso   1.00
O3739  O     0.29898   0.32484   0.80772   0.01267  Uiso   1.00
O3740  O     0.23205   0.45578   0.79040   0.01267  Uiso   1.00
O3741  O     0.22698   0.39021   0.79977   0.01267  Uiso   1.00
O3742  O     0.23355   0.32472   0.80463   0.01267  Uiso   1.00
O3743  O     0.16441   0.41377   0.73207   0.01267  Uiso   1.00
O3744  O     0.16389   0.32127   0.73556   0.01267  Uiso   1.00
O3745  O     0.12226   0.11226   0.74251   0.01267  Uiso   1.00
O3746  O     0.10127   0.11046   0.79915   0.01267  Uiso   1.00
O3747  O     0.06685   0.11589   0.83959   0.01267  Uiso   1.00
O3748  O     0.03258   0.10870   0.80003   0.01267  Uiso   1.00
O3749  O     0.03700   0.11560   0.73549   0.01267  Uiso   1.00
O3750  O     0.07937   0.12402   0.74506   0.01267  Uiso   1.00
O3751  O     0.12169   0.22726   0.74924   0.01267  Uiso   1.00
O3752  O     0.10192   0.22138   0.80554   0.01267  Uiso   1.00
O3753  O     0.06437   0.21682   0.83767   0.01267  Uiso   1.00
O3754  O     0.02966   0.22703   0.79960   0.01267  Uiso   1.00
O3755  O     0.03701   0.21971   0.73565   0.01267  Uiso   1.00
O3756  O     0.07882   0.21458   0.75075   0.01267  Uiso   1.00
O3757  O     0.10737   0.16816   0.76816   0.01267  Uiso   1.00
O3758  O     0.02665   0.16758   0.77294   0.01267  Uiso   1.00
O3759  O     0.14216   0.07989   0.69411   0.01267  Uiso   1.00
O3760  O     0.13802   0.14523   0.69018   0.01267  Uiso   1.00
O3761  O     0.13196   0.21037   0.68786   0.01267  Uiso   1.00
O3762  O     0.06482   0.07837   0.70287   0.01267  Uiso   1.00
O3763  O     0.06119   0.14248   0.68859   0.01267  Uiso   1.00
O3764  O     0.06606   0.20847   0.68823   0.01267  Uiso   1.00
O3765  O     0.33129   0.11894   0.76138   0.01267  Uiso   1.00
O3766  O     0.33025   0.21399   0.75851   0.01267  Uiso   1.00
O3767  O     0.04347   0.17222   0.91013   0.01267  Uiso   1.00
O3768  O     0.06519   0.17503   0.96601   0.01267  Uiso   1.00
O3769  O     0.09937   0.16889   0.67335   0.01267  Uiso   1.00
O3770  O     0.13337   0.17665   0.96643   0.01267  Uiso   1.00
O3771  O     0.12913   0.16930   0.90200   0.01267  Uiso   1.00
O3772  O     0.08657   0.16195   0.91135   0.01267  Uiso   1.00
O3773  O     0.04413   0.05870   0.91688   0.01267  Uiso   1.00
O3774  O     0.06489   0.06342   0.97259   0.01267  Uiso   1.00
O3775  O     0.10233   0.06871   0.67152   0.01267  Uiso   1.00
O3776  O     0.13661   0.05774   0.96615   0.01267  Uiso   1.00
O3777  O     0.12916   0.06575   0.90228   0.01267  Uiso   1.00
O3778  O     0.08719   0.06938   0.91694   0.01267  Uiso   1.00
O3779  O     0.05970   0.11694   0.93560   0.01267  Uiso   1.00
O3780  O     0.13895   0.11756   0.94015   0.01267  Uiso   1.00
O3781  O     0.02474   0.20544   0.86127   0.01267  Uiso   1.00
O3782  O     0.02852   0.14006   0.85699   0.01267  Uiso   1.00
O3783  O     0.03421   0.07477   0.85511   0.01267  Uiso   1.00
O3784  O     0.10185   0.20711   0.86930   0.01267  Uiso   1.00
O3785  O     0.10479   0.14296   0.85502   0.01267  Uiso   1.00
O3786  O     0.10038   0.07696   0.85469   0.01267  Uiso   1.00
O3787  O     0.16807   0.16553   0.92811   0.01267  Uiso   1.00
O3788  O     0.16916   0.07232   0.92507   0.01267  Uiso   1.00
O3789  O     0.14371   0.26833   0.71090   0.01267  Uiso   1.00
O3790  O     0.06494   0.26690   0.71640   0.01267  Uiso   1.00
O3791  O     0.09197   0.26700   0.85007   0.01267  Uiso   1.00
O3792  O     0.03708   0.26709   0.84939   0.01267  Uiso   1.00
O3793  O     0.02332   0.01637   0.87877   0.01267  Uiso   1.00
O3794  O     0.10218   0.01819   0.88179   0.01267  Uiso   1.00
O3795  O     0.07531   0.01822   0.68425   0.01267  Uiso   1.00
O3796  O     0.12962   0.01819   0.68325   0.01267  Uiso   1.00
O3797  O     0.18812   0.01866   0.95048   0.01267  Uiso   1.00
O3798  O     0.26709   0.01762   0.94449   0.01267  Uiso   1.00
O3799  O     0.24126   0.01665   0.80958   0.01267  Uiso   1.00
O3800  O     0.29590   0.01699   0.81064   0.01267  Uiso   1.00
O3801  O     0.30991   0.26730   0.78227   0.01267  Uiso   1.00
O3802  O     0.23276   0.26711   0.77529   0.01267  Uiso   1.00
O3803  O     0.25811   0.26682   0.97658   0.01267  Uiso   1.00
O3804  O     0.20354   0.26789   0.97785   0.01267  Uiso   1.00
Si3805 Si    0.14065   0.92119   0.71603   0.01267  Uiso   1.00
Si3806 Si    0.10168   0.90689   0.76486   0.01267  Uiso   1.00
Si3807 Si    0.09322   0.92554   0.83811   0.01267  Uiso   1.00
Si3808 Si    0.04058   0.92431   0.83779   0.01267  Uiso   1.00
Si3809 Si    0.02431   0.90704   0.76626   0.01267  Uiso   1.00
Si3810 Si    0.06098   0.92090   0.71654   0.01267  Uiso   1.00
Si3811 Si    0.14115   0.80725   0.72003   0.01267  Uiso   1.00
Si3812 Si    0.10174   0.82772   0.76768   0.01267  Uiso   1.00
Si3813 Si    0.09012   0.80554   0.83889   0.01267  Uiso   1.00
Si3814 Si    0.03896   0.80593   0.83920   0.01267  Uiso   1.00
Si3815 Si    0.02160   0.82789   0.76863   0.01267  Uiso   1.00
Si3816 Si    0.06038   0.80574   0.72430   0.01267  Uiso   1.00
Si3817 Si    0.02510   0.86423   0.88384   0.01267  Uiso   1.00
Si3818 Si    0.06414   0.87849   0.93274   0.01267  Uiso   1.00
Si3819 Si    0.07186   0.85933   0.67259   0.01267  Uiso   1.00
Si3820 Si    0.12411   0.86049   0.67182   0.01267  Uiso   1.00
Si3821 Si    0.14007   0.87867   0.93436   0.01267  Uiso   1.00
Si3822 Si    0.10434   0.86419   0.88303   0.01267  Uiso   1.00
Si3823 Si    0.02508   0.97730   0.88779   0.01267  Uiso   1.00
Si3824 Si    0.06517   0.95772   0.93513   0.01267  Uiso   1.00
Si3825 Si    0.07681   0.97974   0.67285   0.01267  Uiso   1.00
Si3826 Si    0.12784   0.97979   0.67150   0.01267  Uiso   1.00
Si3827 Si    0.14458   0.95789   0.93436   0.01267  Uiso   1.00
Si3828 Si    0.10582   0.97916   0.88968   0.01267  Uiso   1.00
Si3829 Si    0.19185   0.67124   0.94478   0.01267  Uiso   1.00
Si3830 Si    0.23082   0.65602   0.89553   0.01267  Uiso   1.00
Si3831 Si    0.23940   0.67512   0.82275   0.01267  Uiso   1.00
Si3832 Si    0.29210   0.67459   0.82304   0.01267  Uiso   1.00
Si3833 Si    0.30880   0.65628   0.89387   0.01267  Uiso   1.00
Si3834 Si    0.27167   0.66942   0.94357   0.01267  Uiso   1.00
Si3835 Si    0.19169   0.55729   0.94051   0.01267  Uiso   1.00
Si3836 Si    0.23087   0.57722   0.89231   0.01267  Uiso   1.00
Si3837 Si    0.24292   0.55516   0.82089   0.01267  Uiso   1.00
Si3838 Si    0.29397   0.55508   0.82313   0.01267  Uiso   1.00
Si3839 Si    0.31062   0.57696   0.89352   0.01267  Uiso   1.00
Si3840 Si    0.27139   0.55663   0.93756   0.01267  Uiso   1.00
Si3841 Si    0.30760   0.61333   0.77850   0.01267  Uiso   1.00
Si3842 Si    0.26860   0.62750   0.72978   0.01267  Uiso   1.00
Si3843 Si    0.25982   0.60990   0.98989   0.01267  Uiso   1.00
Si3844 Si    0.20714   0.61092   0.99038   0.01267  Uiso   1.00
Si3845 Si    0.19055   0.62818   0.72809   0.01267  Uiso   1.00
Si3846 Si    0.22754   0.61448   0.77761   0.01267  Uiso   1.00
Si3847 Si    0.30734   0.72839   0.77327   0.01267  Uiso   1.00
Si3848 Si    0.26864   0.70635   0.72550   0.01267  Uiso   1.00
Si3849 Si    0.25642   0.72814   0.98715   0.01267  Uiso   1.00
Si3850 Si    0.20533   0.72920   0.98928   0.01267  Uiso   1.00
Si3851 Si    0.18853   0.70739   0.72666   0.01267  Uiso   1.00
Si3852 Si    0.22799   0.72794   0.76984   0.01267  Uiso   1.00
Si3853 Si    0.18980   0.86263   0.94610   0.01267  Uiso   1.00
Si3854 Si    0.23952   0.86101   0.82032   0.01267  Uiso   1.00
Si3855 Si    0.29165   0.86063   0.82262   0.01267  Uiso   1.00
Si3856 Si    0.30804   0.87844   0.89322   0.01267  Uiso   1.00
Si3857 Si    0.27193   0.86452   0.94408   0.01267  Uiso   1.00
Si3858 Si    0.19298   0.98070   0.93920   0.01267  Uiso   1.00
Si3859 Si    0.22927   0.95916   0.89182   0.01267  Uiso   1.00
Si3860 Si    0.24295   0.97759   0.81958   0.01267  Uiso   1.00
Si3861 Si    0.29402   0.97888   0.82342   0.01267  Uiso   1.00
Si3862 Si    0.30995   0.95751   0.89396   0.01267  Uiso   1.00
Si3863 Si    0.27023   0.97842   0.93647   0.01267  Uiso   1.00
Si3864 Si    0.30847   0.92051   0.77895   0.01267  Uiso   1.00
Si3865 Si    0.26991   0.90671   0.72829   0.01267  Uiso   1.00
Si3866 Si    0.26076   0.92403   0.99006   0.01267  Uiso   1.00
Si3867 Si    0.20832   0.92479   0.98738   0.01267  Uiso   1.00
Si3868 Si    0.19006   0.90644   0.72462   0.01267  Uiso   1.00
Si3869 Si    0.22776   0.92013   0.77307   0.01267  Uiso   1.00
Si3870 Si    0.30653   0.80632   0.77410   0.01267  Uiso   1.00
Si3871 Si    0.26872   0.82776   0.72484   0.01267  Uiso   1.00
Si3872 Si    0.25718   0.80566   0.98703   0.01267  Uiso   1.00
Si3873 Si    0.20620   0.80555   0.99155   0.01267  Uiso   1.00
Si3874 Si    0.18970   0.82750   0.72809   0.01267  Uiso   1.00
Si3875 Si    0.22888   0.80657   0.76991   0.01267  Uiso   1.00
Si3876 Si    0.14157   0.61413   0.71514   0.01267  Uiso   1.00
Si3877 Si    0.10257   0.62878   0.76367   0.01267  Uiso   1.00
Si3878 Si    0.09323   0.61147   0.83713   0.01267  Uiso   1.00
Si3879 Si    0.04062   0.60984   0.83793   0.01267  Uiso   1.00
Si3880 Si    0.02350   0.62786   0.76760   0.01267  Uiso   1.00
Si3881 Si    0.06082   0.61511   0.71797   0.01267  Uiso   1.00
Si3882 Si    0.14013   0.72972   0.72068   0.01267  Uiso   1.00
Si3883 Si    0.10228   0.70766   0.76820   0.01267  Uiso   1.00
Si3884 Si    0.08992   0.72806   0.84042   0.01267  Uiso   1.00
Si3885 Si    0.03891   0.72898   0.83691   0.01267  Uiso   1.00
Si3886 Si    0.02252   0.70688   0.76672   0.01267  Uiso   1.00
Si3887 Si    0.06171   0.72748   0.72282   0.01267  Uiso   1.00
Si3888 Si    0.02466   0.67092   0.88199   0.01267  Uiso   1.00
Si3889 Si    0.06368   0.65642   0.93071   0.01267  Uiso   1.00
Si3890 Si    0.07301   0.67379   0.67073   0.01267  Uiso   1.00
Si3891 Si    0.12555   0.67511   0.67113   0.01267  Uiso   1.00
Si3892 Si    0.14244   0.65708   0.93426   0.01267  Uiso   1.00
Si3893 Si    0.10534   0.67019   0.88442   0.01267  Uiso   1.00
Si3894 Si    0.02604   0.55522   0.88797   0.01267  Uiso   1.00
Si3895 Si    0.06412   0.57725   0.93529   0.01267  Uiso   1.00
Si3896 Si    0.07682   0.55712   0.67426   0.01267  Uiso   1.00
Si3897 Si    0.12769   0.55621   0.67036   0.01267  Uiso   1.00
Si3898 Si    0.14348   0.57843   0.93344   0.01267  Uiso   1.00
Si3899 Si    0.10465   0.55753   0.88908   0.01267  Uiso   1.00
Al3900 Al    0.23030   0.87991   0.89509   0.01267  Uiso   1.00
O3901  O     0.12268   0.92143   0.74529   0.01267  Uiso   1.00
O3902  O     0.09968   0.92660   0.79949   0.01267  Uiso   1.00
O3903  O     0.06688   0.92470   0.84297   0.01267  Uiso   1.00
O3904  O     0.03454   0.92384   0.79914   0.01267  Uiso   1.00
O3905  O     0.03728   0.92097   0.73434   0.01267  Uiso   1.00
O3906  O     0.07969   0.91265   0.74357   0.01267  Uiso   1.00
O3907  O     0.12187   0.81232   0.74683   0.01267  Uiso   1.00
O3908  O     0.10224   0.81040   0.80368   0.01267  Uiso   1.00
O3909  O     0.06462   0.81678   0.83560   0.01267  Uiso   1.00
O3910  O     0.02672   0.81212   0.80450   0.01267  Uiso   1.00
O3911  O     0.03625   0.80949   0.74067   0.01267  Uiso   1.00
O3912  O     0.07854   0.81989   0.74995   0.01267  Uiso   1.00
O3913  O     0.10488   0.86745   0.77161   0.01267  Uiso   1.00
O3914  O     0.02737   0.86710   0.76886   0.01267  Uiso   1.00
O3915  O     0.14101   0.95708   0.69782   0.01267  Uiso   1.00
O3916  O     0.13502   0.89291   0.68875   0.01267  Uiso   1.00
O3917  O     0.13546   0.82703   0.68618   0.01267  Uiso   1.00
O3918  O     0.06476   0.95725   0.70045   0.01267  Uiso   1.00
O3919  O     0.06123   0.89288   0.68781   0.01267  Uiso   1.00
O3920  O     0.06160   0.82649   0.69003   0.01267  Uiso   1.00
O3921  O     0.33218   0.91696   0.76143   0.01267  Uiso   1.00
O3922  O     0.32925   0.82216   0.76016   0.01267  Uiso   1.00
O3923  O     0.04156   0.86781   0.91489   0.01267  Uiso   1.00
O3924  O     0.06659   0.85786   0.96689   0.01267  Uiso   1.00
O3925  O     0.09811   0.85982   0.67943   0.01267  Uiso   1.00
O3926  O     0.12820   0.86169   0.96584   0.01267  Uiso   1.00
O3927  O     0.12795   0.86629   0.90125   0.01267  Uiso   1.00
O3928  O     0.08487   0.86995   0.90938   0.01267  Uiso   1.00
O3929  O     0.04443   0.97099   0.91430   0.01267  Uiso   1.00
O3930  O     0.06490   0.97570   0.97076   0.01267  Uiso   1.00
O3931  O     0.10231   0.96804   0.66996   0.01267  Uiso   1.00
O3932  O     0.13855   0.97628   0.96859   0.01267  Uiso   1.00
O3933  O     0.13028   0.97348   0.90444   0.01267  Uiso   1.00
O3934  O     0.08796   0.96659   0.91653   0.01267  Uiso   1.00
O3935  O     0.06379   0.91792   0.94047   0.01267  Uiso   1.00
O3936  O     0.13901   0.91861   0.93790   0.01267  Uiso   1.00
O3937  O     0.02756   0.82739   0.86810   0.01267  Uiso   1.00
O3938  O     0.03060   0.89154   0.85555   0.01267  Uiso   1.00
O3939  O     0.03025   0.95768   0.85376   0.01267  Uiso   1.00
O3940  O     0.10224   0.82757   0.86677   0.01267  Uiso   1.00
O3941  O     0.10353   0.89220   0.85440   0.01267  Uiso   1.00
O3942  O     0.10311   0.95849   0.85563   0.01267  Uiso   1.00
O3943  O     0.16542   0.86661   0.93202   0.01267  Uiso   1.00
O3944  O     0.17040   0.96316   0.92661   0.01267  Uiso   1.00
O3945  O     0.21026   0.67053   0.91620   0.01267  Uiso   1.00
O3946  O     0.23261   0.67668   0.86130   0.01267  Uiso   1.00
O3947  O     0.26578   0.67257   0.81865   0.01267  Uiso   1.00
O3948  O     0.29869   0.67439   0.86155   0.01267  Uiso   1.00
O3949  O     0.29557   0.66848   0.92626   0.01267  Uiso   1.00
O3950  O     0.25320   0.66069   0.91632   0.01267  Uiso   1.00
O3951  O     0.21098   0.56143   0.91347   0.01267  Uiso   1.00
O3952  O     0.23112   0.55981   0.85641   0.01267  Uiso   1.00
O3953  O     0.26844   0.56689   0.82360   0.01267  Uiso   1.00
O3954  O     0.30397   0.55793   0.85988   0.01267  Uiso   1.00
O3955  O     0.29613   0.56251   0.92383   0.01267  Uiso   1.00
O3956  O     0.25417   0.57087   0.91047   0.01267  Uiso   1.00
O3957  O     0.22708   0.61690   0.88800   0.01267  Uiso   1.00
O3958  O     0.30633   0.61645   0.88917   0.01267  Uiso   1.00
O3959  O     0.19193   0.70749   0.96245   0.01267  Uiso   1.00
O3960  O     0.19618   0.64300   0.97256   0.01267  Uiso   1.00
O3961  O     0.19793   0.57705   0.97402   0.01267  Uiso   1.00
O3962  O     0.26788   0.70630   0.95852   0.01267  Uiso   1.00
O3963  O     0.27099   0.64246   0.97327   0.01267  Uiso   1.00
O3964  O     0.26834   0.57627   0.97213   0.01267  Uiso   1.00
O3965  O     0.00091   0.66664   0.89923   0.01267  Uiso   1.00
O3966  O     0.00301   0.57036   0.90129   0.01267  Uiso   1.00
O3967  O     0.28903   0.61223   0.75011   0.01267  Uiso   1.00
O3968  O     0.26670   0.60810   0.69497   0.01267  Uiso   1.00
O3969  O     0.23344   0.61299   0.98591   0.01267  Uiso   1.00
O3970  O     0.20055   0.61042   0.69555   0.01267  Uiso   1.00
O3971  O     0.20364   0.61539   0.76030   0.01267  Uiso   1.00
O3972  O     0.24607   0.62250   0.75015   0.01267  Uiso   1.00
O3973  O     0.28829   0.72361   0.74595   0.01267  Uiso   1.00
O3974  O     0.26846   0.72215   0.68885   0.01267  Uiso   1.00
O3975  O     0.23075   0.71723   0.99043   0.01267  Uiso   1.00
O3976  O     0.19456   0.72536   0.69208   0.01267  Uiso   1.00
O3977  O     0.20316   0.72310   0.75614   0.01267  Uiso   1.00
O3978  O     0.24511   0.71293   0.74306   0.01267  Uiso   1.00
O3979  O     0.27281   0.66672   0.72327   0.01267  Uiso   1.00
O3980  O     0.19336   0.66802   0.72375   0.01267  Uiso   1.00
O3981  O     0.30786   0.57820   0.79801   0.01267  Uiso   1.00
O3982  O     0.30310   0.64304   0.80463   0.01267  Uiso   1.00
O3983  O     0.30115   0.70885   0.80701   0.01267  Uiso   1.00
O3984  O     0.23093   0.57786   0.79332   0.01267  Uiso   1.00
O3985  O     0.22836   0.64239   0.80642   0.01267  Uiso   1.00
O3986  O     0.23067   0.70873   0.80480   0.01267  Uiso   1.00
O3987  O     0.16499   0.61850   0.73333   0.01267  Uiso   1.00
O3988  O     0.16280   0.71387   0.73464   0.01267  Uiso   1.00
O3989  O     0.20626   0.85663   0.91314   0.01267  Uiso   1.00
O3990  O     0.23171   0.86067   0.85763   0.01267  Uiso   1.00
O3991  O     0.26586   0.86732   0.81606   0.01267  Uiso   1.00
O3992  O     0.29727   0.86023   0.86146   0.01267  Uiso   1.00
O3993  O     0.29576   0.86596   0.92612   0.01267  Uiso   1.00
O3994  O     0.25219   0.87173   0.91963   0.01267  Uiso   1.00
O3995  O     0.21069   0.98202   0.90968   0.01267  Uiso   1.00
O3996  O     0.23008   0.97089   0.85361   0.01267  Uiso   1.00
O3997  O     0.26857   0.96688   0.82371   0.01267  Uiso   1.00
O3998  O     0.30409   0.97710   0.86021   0.01267  Uiso   1.00
O3999  O     0.29511   0.97177   0.92383   0.01267  Uiso   1.00
O4000  O     0.25322   0.96707   0.90804   0.01267  Uiso   1.00
O4001  O     0.22280   0.92088   0.89557   0.01267  Uiso   1.00
O4002  O     0.30541   0.91830   0.88847   0.01267  Uiso   1.00
O4003  O     0.19123   0.82962   0.96848   0.01267  Uiso   1.00
O4004  O     0.19855   0.89522   0.96412   0.01267  Uiso   1.00
O4005  O     0.20268   0.96026   0.97063   0.01267  Uiso   1.00
O4006  O     0.26982   0.82731   0.95973   0.01267  Uiso   1.00
O4007  O     0.27226   0.89181   0.97379   0.01267  Uiso   1.00
O4008  O     0.26622   0.95802   0.97035   0.01267  Uiso   1.00
O4009  O     0.00038   0.86897   0.89692   0.01267  Uiso   1.00
O4010  O     0.00217   0.96397   0.90337   0.01267  Uiso   1.00
O4011  O     0.28964   0.92036   0.75105   0.01267  Uiso   1.00
O4012  O     0.27009   0.92736   0.69399   0.01267  Uiso   1.00
O4013  O     0.23429   0.91887   0.99107   0.01267  Uiso   1.00
O4014  O     0.19657   0.92326   0.68964   0.01267  Uiso   1.00
O4015  O     0.20428   0.92216   0.75431   0.01267  Uiso   1.00
O4016  O     0.24654   0.91257   0.74599   0.01267  Uiso   1.00
O4017  O     0.28786   0.81051   0.74623   0.01267  Uiso   1.00
O4018  O     0.26889   0.81028   0.68910   0.01267  Uiso   1.00
O4019  O     0.23153   0.81756   0.98953   0.01267  Uiso   1.00
O4020  O     0.19710   0.80701   0.69549   0.01267  Uiso   1.00
O4021  O     0.20355   0.81355   0.75923   0.01267  Uiso   1.00
O4022  O     0.24484   0.82127   0.74145   0.01267  Uiso   1.00
O4023  O     0.27315   0.86725   0.72145   0.01267  Uiso   1.00
O4024  O     0.19433   0.86664   0.72205   0.01267  Uiso   1.00
O4025  O     0.30793   0.95545   0.79873   0.01267  Uiso   1.00
O4026  O     0.30558   0.88988   0.80465   0.01267  Uiso   1.00
O4027  O     0.29898   0.82484   0.80772   0.01267  Uiso   1.00
O4028  O     0.23205   0.95578   0.79040   0.01267  Uiso   1.00
O4029  O     0.22698   0.89021   0.79977   0.01267  Uiso   1.00
O4030  O     0.23355   0.82472   0.80463   0.01267  Uiso   1.00
O4031  O     0.16441   0.91377   0.73207   0.01267  Uiso   1.00
O4032  O     0.16389   0.82127   0.73556   0.01267  Uiso   1.00
O4033  O     0.12226   0.61226   0.74251   0.01267  Uiso   1.00
O4034  O     0.10127   0.61046   0.79915   0.01267  Uiso   1.00
O4035  O     0.06685   0.61589   0.83959   0.01267  Uiso   1.00
O4036  O     0.03258   0.60870   0.80003   0.01267  Uiso   1.00
O4037  O     0.03700   0.61560   0.73549   0.01267  Uiso   1.00
O4038  O     0.07937   0.62402   0.74506   0.01267  Uiso   1.00
O4039  O     0.12169   0.72726   0.74924   0.01267  Uiso   1.00
O4040  O     0.10192   0.72138   0.80554   0.01267  Uiso   1.00
O4041  O     0.06437   0.71682   0.83767   0.01267  Uiso   1.00
O4042  O     0.02966   0.72703   0.79960   0.01267  Uiso   1.00
O4043  O     0.03701   0.71971   0.73565   0.01267  Uiso   1.00
O4044  O     0.07882   0.71458   0.75075   0.01267  Uiso   1.00
O4045  O     0.10737   0.66816   0.76816   0.01267  Uiso   1.00
O4046  O     0.02665   0.66758   0.77294   0.01267  Uiso   1.00
O4047  O     0.14216   0.57989   0.69411   0.01267  Uiso   1.00
O4048  O     0.13802   0.64523   0.69018   0.01267  Uiso   1.00
O4049  O     0.13196   0.71037   0.68786   0.01267  Uiso   1.00
O4050  O     0.06482   0.57837   0.70287   0.01267  Uiso   1.00
O4051  O     0.06119   0.64248   0.68859   0.01267  Uiso   1.00
O4052  O     0.06606   0.70847   0.68823   0.01267  Uiso   1.00
O4053  O     0.33129   0.61894   0.76138   0.01267  Uiso   1.00
O4054  O     0.33025   0.71399   0.75851   0.01267  Uiso   1.00
O4055  O     0.04347   0.67222   0.91013   0.01267  Uiso   1.00
O4056  O     0.06519   0.67503   0.96601   0.01267  Uiso   1.00
O4057  O     0.09937   0.66889   0.67335   0.01267  Uiso   1.00
O4058  O     0.13337   0.67665   0.96643   0.01267  Uiso   1.00
O4059  O     0.12913   0.66930   0.90200   0.01267  Uiso   1.00
O4060  O     0.08657   0.66195   0.91135   0.01267  Uiso   1.00
O4061  O     0.04413   0.55870   0.91688   0.01267  Uiso   1.00
O4062  O     0.06489   0.56342   0.97259   0.01267  Uiso   1.00
O4063  O     0.10233   0.56871   0.67152   0.01267  Uiso   1.00
O4064  O     0.13661   0.55774   0.96615   0.01267  Uiso   1.00
O4065  O     0.12916   0.56575   0.90228   0.01267  Uiso   1.00
O4066  O     0.08719   0.56938   0.91694   0.01267  Uiso   1.00
O4067  O     0.05970   0.61694   0.93560   0.01267  Uiso   1.00
O4068  O     0.13895   0.61756   0.94015   0.01267  Uiso   1.00
O4069  O     0.02474   0.70544   0.86127   0.01267  Uiso   1.00
O4070  O     0.02852   0.64006   0.85699   0.01267  Uiso   1.00
O4071  O     0.03421   0.57477   0.85511   0.01267  Uiso   1.00
O4072  O     0.10185   0.70711   0.86930   0.01267  Uiso   1.00
O4073  O     0.10479   0.64296   0.85502   0.01267  Uiso   1.00
O4074  O     0.10038   0.57696   0.85469   0.01267  Uiso   1.00
O4075  O     0.16807   0.66553   0.92811   0.01267  Uiso   1.00
O4076  O     0.16916   0.57232   0.92507   0.01267  Uiso   1.00
O4077  O     0.14371   0.76833   0.71090   0.01267  Uiso   1.00
O4078  O     0.06494   0.76690   0.71640   0.01267  Uiso   1.00
O4079  O     0.09197   0.76700   0.85007   0.01267  Uiso   1.00
O4080  O     0.03708   0.76709   0.84939   0.01267  Uiso   1.00
O4081  O     0.02332   0.51637   0.87877   0.01267  Uiso   1.00
O4082  O     0.10218   0.51819   0.88179   0.01267  Uiso   1.00
O4083  O     0.07531   0.51822   0.68425   0.01267  Uiso   1.00
O4084  O     0.12962   0.51819   0.68325   0.01267  Uiso   1.00
O4085  O     0.18812   0.51866   0.95048   0.01267  Uiso   1.00
O4086  O     0.26709   0.51762   0.94449   0.01267  Uiso   1.00
O4087  O     0.24126   0.51665   0.80958   0.01267  Uiso   1.00
O4088  O     0.29590   0.51699   0.81064   0.01267  Uiso   1.00
O4089  O     0.30991   0.76730   0.78227   0.01267  Uiso   1.00
O4090  O     0.23276   0.76711   0.77529   0.01267  Uiso   1.00
O4091  O     0.25811   0.76682   0.97658   0.01267  Uiso   1.00
O4092  O     0.20354   0.76789   0.97785   0.01267  Uiso   1.00
H4093  H     0.20363   0.83470   0.90199   0.01267  Uiso   1.00
H4094  H     0.13934   0.77145   0.88326   0.01267  Uiso   1.00
H4095  H     0.17058   0.76659   0.92831   0.01267  Uiso   1.00
H4096  H     0.15543   0.79076   0.82594   0.01267  Uiso   1.00
H4097  H     0.19837   0.80035   0.82941   0.01267  Uiso   1.00
C4098  C     0.16527   0.78716   0.84798   0.01267  Uiso   1.00
C4099  C     0.18742   0.79220   0.84881   0.01267  Uiso   1.00
C4100  C     0.15658   0.77679   0.87894   0.01267  Uiso   1.00
C4101  C     0.17227   0.77421   0.90283   0.01267  Uiso   1.00
S4102  S     0.19783   0.78357   0.88726   0.01267  Uiso   1.00
Si4103 Si    0.47398   0.42119   0.71603   0.01267  Uiso   1.00
Si4104 Si    0.43501   0.40689   0.76486   0.01267  Uiso   1.00
Si4105 Si    0.42655   0.42554   0.83811   0.01267  Uiso   1.00
Si4106 Si    0.37391   0.42431   0.83779   0.01267  Uiso   1.00
Si4107 Si    0.35765   0.40704   0.76626   0.01267  Uiso   1.00
Si4108 Si    0.39432   0.42090   0.71654   0.01267  Uiso   1.00
Si4109 Si    0.47448   0.30725   0.72003   0.01267  Uiso   1.00
Si4110 Si    0.43508   0.32772   0.76768   0.01267  Uiso   1.00
Si4111 Si    0.42345   0.30554   0.83889   0.01267  Uiso   1.00
Si4112 Si    0.37229   0.30593   0.83920   0.01267  Uiso   1.00
Si4113 Si    0.35493   0.32789   0.76863   0.01267  Uiso   1.00
Si4114 Si    0.39371   0.30574   0.72430   0.01267  Uiso   1.00
Si4115 Si    0.35843   0.36423   0.88384   0.01267  Uiso   1.00
Si4116 Si    0.39747   0.37849   0.93274   0.01267  Uiso   1.00
Si4117 Si    0.40519   0.35933   0.67259   0.01267  Uiso   1.00
Si4118 Si    0.45744   0.36049   0.67182   0.01267  Uiso   1.00
Si4119 Si    0.47340   0.37867   0.93436   0.01267  Uiso   1.00
Si4120 Si    0.43768   0.36419   0.88303   0.01267  Uiso   1.00
Si4121 Si    0.35841   0.47730   0.88779   0.01267  Uiso   1.00
Si4122 Si    0.39850   0.45772   0.93513   0.01267  Uiso   1.00
Si4123 Si    0.41014   0.47974   0.67285   0.01267  Uiso   1.00
Si4124 Si    0.46117   0.47979   0.67150   0.01267  Uiso   1.00
Si4125 Si    0.47791   0.45789   0.93436   0.01267  Uiso   1.00
Si4126 Si    0.43915   0.47916   0.88968   0.01267  Uiso   1.00
Si4127 Si    0.52519   0.17124   0.94478   0.01267  Uiso   1.00
Si4128 Si    0.56416   0.15602   0.89553   0.01267  Uiso   1.00
Si4129 Si    0.57273   0.17512   0.82275   0.01267  Uiso   1.00
Si4130 Si    0.62544   0.17459   0.82304   0.01267  Uiso   1.00
Si4131 Si    0.64213   0.15628   0.89387   0.01267  Uiso   1.00
Si4132 Si    0.60501   0.16942   0.94357   0.01267  Uiso   1.00
Si4133 Si    0.52503   0.05729   0.94051   0.01267  Uiso   1.00
Si4134 Si    0.56420   0.07722   0.89231   0.01267  Uiso   1.00
Si4135 Si    0.57626   0.05516   0.82089   0.01267  Uiso   1.00
Si4136 Si    0.62731   0.05508   0.82313   0.01267  Uiso   1.00
Si4137 Si    0.64396   0.07696   0.89352   0.01267  Uiso   1.00
Si4138 Si    0.60472   0.05663   0.93756   0.01267  Uiso   1.00
Si4139 Si    0.64093   0.11333   0.77850   0.01267  Uiso   1.00
Si4140 Si    0.60194   0.12750   0.72978   0.01267  Uiso   1.00
Si4141 Si    0.59316   0.10990   0.98989   0.01267  Uiso   1.00
Si4142 Si    0.54047   0.11092   0.99038   0.01267  Uiso   1.00
Si4143 Si    0.52388   0.12818   0.72809   0.01267  Uiso   1.00
Si4144 Si    0.56088   0.11448   0.77761   0.01267  Uiso   1.00
Si4145 Si    0.64068   0.22839   0.77327   0.01267  Uiso   1.00
Si4146 Si    0.60197   0.20635   0.72550   0.01267  Uiso   1.00
Si4147 Si    0.58975   0.22814   0.98715   0.01267  Uiso   1.00
Si4148 Si    0.53867   0.22920   0.98928   0.01267  Uiso   1.00
Si4149 Si    0.52186   0.20739   0.72666   0.01267  Uiso   1.00
Si4150 Si    0.56132   0.22794   0.76984   0.01267  Uiso   1.00
Si4151 Si    0.52314   0.36263   0.94610   0.01267  Uiso   1.00
Si4152 Si    0.57286   0.36101   0.82032   0.01267  Uiso   1.00
Si4153 Si    0.62499   0.36063   0.82262   0.01267  Uiso   1.00
Si4154 Si    0.64137   0.37844   0.89322   0.01267  Uiso   1.00
Si4155 Si    0.60527   0.36452   0.94408   0.01267  Uiso   1.00
Si4156 Si    0.52631   0.48070   0.93920   0.01267  Uiso   1.00
Si4157 Si    0.56260   0.45916   0.89182   0.01267  Uiso   1.00
Si4158 Si    0.57629   0.47759   0.81958   0.01267  Uiso   1.00
Si4159 Si    0.62736   0.47888   0.82342   0.01267  Uiso   1.00
Si4160 Si    0.64328   0.45751   0.89396   0.01267  Uiso   1.00
Si4161 Si    0.60356   0.47842   0.93647   0.01267  Uiso   1.00
Si4162 Si    0.64180   0.42051   0.77895   0.01267  Uiso   1.00
Si4163 Si    0.60324   0.40671   0.72829   0.01267  Uiso   1.00
Si4164 Si    0.59409   0.42403   0.99006   0.01267  Uiso   1.00
Si4165 Si    0.54166   0.42479   0.98738   0.01267  Uiso   1.00
Si4166 Si    0.52339   0.40644   0.72462   0.01267  Uiso   1.00
Si4167 Si    0.56109   0.42013   0.77307   0.01267  Uiso   1.00
Si4168 Si    0.63986   0.30632   0.77410   0.01267  Uiso   1.00
Si4169 Si    0.60205   0.32776   0.72484   0.01267  Uiso   1.00
Si4170 Si    0.59051   0.30566   0.98703   0.01267  Uiso   1.00
Si4171 Si    0.53953   0.30555   0.99155   0.01267  Uiso   1.00
Si4172 Si    0.52303   0.32750   0.72809   0.01267  Uiso   1.00
Si4173 Si    0.56221   0.30657   0.76991   0.01267  Uiso   1.00
Si4174 Si    0.47491   0.11413   0.71514   0.01267  Uiso   1.00
Si4175 Si    0.43590   0.12878   0.76367   0.01267  Uiso   1.00
Si4176 Si    0.42656   0.11147   0.83713   0.01267  Uiso   1.00
Si4177 Si    0.37395   0.10984   0.83793   0.01267  Uiso   1.00
Si4178 Si    0.35683   0.12786   0.76760   0.01267  Uiso   1.00
Si4179 Si    0.39416   0.11511   0.71797   0.01267  Uiso   1.00
Si4180 Si    0.47347   0.22972   0.72068   0.01267  Uiso   1.00
Si4181 Si    0.43562   0.20766   0.76820   0.01267  Uiso   1.00
Si4182 Si    0.42325   0.22806   0.84042   0.01267  Uiso   1.00
Si4183 Si    0.37224   0.22898   0.83691   0.01267  Uiso   1.00
Si4184 Si    0.35585   0.20688   0.76672   0.01267  Uiso   1.00
Si4185 Si    0.39504   0.22748   0.72282   0.01267  Uiso   1.00
Si4186 Si    0.35800   0.17092   0.88199   0.01267  Uiso   1.00
Si4187 Si    0.39701   0.15642   0.93071   0.01267  Uiso   1.00
Si4188 Si    0.40634   0.17379   0.67073   0.01267  Uiso   1.00
Si4189 Si    0.45889   0.17511   0.67113   0.01267  Uiso   1.00
Si4190 Si    0.47577   0.15708   0.93426   0.01267  Uiso   1.00
Si4191 Si    0.43867   0.17019   0.88442   0.01267  Uiso   1.00
Si4192 Si    0.35937   0.05522   0.88797   0.01267  Uiso   1.00
Si4193 Si    0.39745   0.07725   0.93529   0.01267  Uiso   1.00
Si4194 Si    0.41015   0.05712   0.67426   0.01267  Uiso   1.00
Si4195 Si    0.46102   0.05621   0.67036   0.01267  Uiso   1.00
Si4196 Si    0.47682   0.07843   0.93344   0.01267  Uiso   1.00
Si4197 Si    0.43798   0.05753   0.88908   0.01267  Uiso   1.00
Al4198 Al    0.56363   0.37991   0.89509   0.01267  Uiso   1.00
O4199  O     0.45602   0.42143   0.74529   0.01267  Uiso   1.00
O4200  O     0.43302   0.42660   0.79949   0.01267  Uiso   1.00
O4201  O     0.40021   0.42470   0.84297   0.01267  Uiso   1.00
O4202  O     0.36787   0.42384   0.79914   0.01267  Uiso   1.00
O4203  O     0.37062   0.42097   0.73434   0.01267  Uiso   1.00
O4204  O     0.41302   0.41265   0.74357   0.01267  Uiso   1.00
O4205  O     0.45520   0.31232   0.74683   0.01267  Uiso   1.00
O4206  O     0.43557   0.31040   0.80368   0.01267  Uiso   1.00
O4207  O     0.39795   0.31678   0.83560   0.01267  Uiso   1.00
O4208  O     0.36005   0.31212   0.80450   0.01267  Uiso   1.00
O4209  O     0.36958   0.30949   0.74067   0.01267  Uiso   1.00
O4210  O     0.41187   0.31989   0.74995   0.01267  Uiso   1.00
O4211  O     0.43822   0.36745   0.77161   0.01267  Uiso   1.00
O4212  O     0.36071   0.36710   0.76886   0.01267  Uiso   1.00
O4213  O     0.47434   0.45708   0.69782   0.01267  Uiso   1.00
O4214  O     0.46836   0.39291   0.68875   0.01267  Uiso   1.00
O4215  O     0.46879   0.32703   0.68618   0.01267  Uiso   1.00
O4216  O     0.39810   0.45725   0.70045   0.01267  Uiso   1.00
O4217  O     0.39456   0.39288   0.68781   0.01267  Uiso   1.00
O4218  O     0.39493   0.32649   0.69003   0.01267  Uiso   1.00
O4219  O     0.66552   0.41696   0.76143   0.01267  Uiso   1.00
O4220  O     0.66258   0.32216   0.76016   0.01267  Uiso   1.00
O4221  O     0.37490   0.36781   0.91489   0.01267  Uiso   1.00
O4222  O     0.39992   0.35786   0.96689   0.01267  Uiso   1.00
O4223  O     0.43144   0.35982   0.67943   0.01267  Uiso   1.00
O4224  O     0.46153   0.36169   0.96584   0.01267  Uiso   1.00
O4225  O     0.46129   0.36629   0.90125   0.01267  Uiso   1.00
O4226  O     0.41820   0.36995   0.90938   0.01267  Uiso   1.00
O4227  O     0.37777   0.47099   0.91430   0.01267  Uiso   1.00
O4228  O     0.39823   0.47570   0.97076   0.01267  Uiso   1.00
O4229  O     0.43565   0.46804   0.66996   0.01267  Uiso   1.00
O4230  O     0.47188   0.47628   0.96859   0.01267  Uiso   1.00
O4231  O     0.46362   0.47348   0.90444   0.01267  Uiso   1.00
O4232  O     0.42129   0.46659   0.91653   0.01267  Uiso   1.00
O4233  O     0.39712   0.41792   0.94047   0.01267  Uiso   1.00
O4234  O     0.47235   0.41861   0.93790   0.01267  Uiso   1.00
O4235  O     0.36089   0.32739   0.86810   0.01267  Uiso   1.00
O4236  O     0.36393   0.39154   0.85555   0.01267  Uiso   1.00
O4237  O     0.36359   0.45768   0.85376   0.01267  Uiso   1.00
O4238  O     0.43558   0.32757   0.86677   0.01267  Uiso   1.00
O4239  O     0.43686   0.39220   0.85440   0.01267  Uiso   1.00
O4240  O     0.43645   0.45849   0.85563   0.01267  Uiso   1.00
O4241  O     0.49875   0.36661   0.93202   0.01267  Uiso   1.00
O4242  O     0.50374   0.46316   0.92661   0.01267  Uiso   1.00
O4243  O     0.54360   0.17053   0.91620   0.01267  Uiso   1.00
O4244  O     0.56594   0.17668   0.86130   0.01267  Uiso   1.00
O4245  O     0.59912   0.17257   0.81865   0.01267  Uiso   1.00
O4246  O     0.63202   0.17439   0.86155   0.01267  Uiso   1.00
O4247  O     0.62891   0.16848   0.92626   0.01267  Uiso   1.00
O4248  O     0.58654   0.16069   0.91632   0.01267  Uiso   1.00
O4249  O     0.54431   0.06143   0.91347   0.01267  Uiso   1.00
O4250  O     0.56445   0.05981   0.85641   0.01267  Uiso   1.00
O4251  O     0.60178   0.06689   0.82360   0.01267  Uiso   1.00
O4252  O     0.63730   0.05793   0.85988   0.01267  Uiso   1.00
O4253  O     0.62946   0.06251   0.92383   0.01267  Uiso   1.00
O4254  O     0.58751   0.07087   0.91047   0.01267  Uiso   1.00
O4255  O     0.56041   0.11690   0.88800   0.01267  Uiso   1.00
O4256  O     0.63966   0.11645   0.88917   0.01267  Uiso   1.00
O4257  O     0.52527   0.20749   0.96245   0.01267  Uiso   1.00
O4258  O     0.52951   0.14300   0.97256   0.01267  Uiso   1.00
O4259  O     0.53126   0.07705   0.97402   0.01267  Uiso   1.00
O4260  O     0.60122   0.20630   0.95852   0.01267  Uiso   1.00
O4261  O     0.60432   0.14246   0.97327   0.01267  Uiso   1.00
O4262  O     0.60168   0.07627   0.97213   0.01267  Uiso   1.00
O4263  O     0.33424   0.16664   0.89923   0.01267  Uiso   1.00
O4264  O     0.33634   0.07036   0.90129   0.01267  Uiso   1.00
O4265  O     0.62236   0.11223   0.75011   0.01267  Uiso   1.00
O4266  O     0.60004   0.10810   0.69497   0.01267  Uiso   1.00
O4267  O     0.56677   0.11299   0.98591   0.01267  Uiso   1.00
O4268  O     0.53389   0.11042   0.69555   0.01267  Uiso   1.00
O4269  O     0.53697   0.11539   0.76030   0.01267  Uiso   1.00
O4270  O     0.57940   0.12250   0.75015   0.01267  Uiso   1.00
O4271  O     0.62162   0.22361   0.74595   0.01267  Uiso   1.00
O4272  O     0.60180   0.22215   0.68885   0.01267  Uiso   1.00
O4273  O     0.56408   0.21723   0.99043   0.01267  Uiso   1.00
O4274  O     0.52789   0.22536   0.69208   0.01267  Uiso   1.00
O4275  O     0.53650   0.22310   0.75614   0.01267  Uiso   1.00
O4276  O     0.57844   0.21293   0.74306   0.01267  Uiso   1.00
O4277  O     0.60614   0.16672   0.72327   0.01267  Uiso   1.00
O4278  O     0.52669   0.16802   0.72375   0.01267  Uiso   1.00
O4279  O     0.64119   0.07820   0.79801   0.01267  Uiso   1.00
O4280  O     0.63644   0.14304   0.80463   0.01267  Uiso   1.00
O4281  O     0.63448   0.20885   0.80701   0.01267  Uiso   1.00
O4282  O     0.56426   0.07786   0.79332   0.01267  Uiso   1.00
O4283  O     0.56170   0.14239   0.80642   0.01267  Uiso   1.00
O4284  O     0.56401   0.20873   0.80480   0.01267  Uiso   1.00
O4285  O     0.49832   0.11850   0.73333   0.01267  Uiso   1.00
O4286  O     0.49614   0.21387   0.73464   0.01267  Uiso   1.00
O4287  O     0.53960   0.35663   0.91314   0.01267  Uiso   1.00
O4288  O     0.56504   0.36067   0.85763   0.01267  Uiso   1.00
O4289  O     0.59919   0.36732   0.81606   0.01267  Uiso   1.00
O4290  O     0.63060   0.36023   0.86146   0.01267  Uiso   1.00
O4291  O     0.62910   0.36596   0.92612   0.01267  Uiso   1.00
O4292  O     0.58552   0.37173   0.91963   0.01267  Uiso   1.00
O4293  O     0.54403   0.48202   0.90968   0.01267  Uiso   1.00
O4294  O     0.56341   0.47089   0.85361   0.01267  Uiso   1.00
O4295  O     0.60191   0.46688   0.82371   0.01267  Uiso   1.00
O4296  O     0.63743   0.47710   0.86021   0.01267  Uiso   1.00
O4297  O     0.62844   0.47177   0.92383   0.01267  Uiso   1.00
O4298  O     0.58655   0.46707   0.90804   0.01267  Uiso   1.00
O4299  O     0.55613   0.42088   0.89557   0.01267  Uiso   1.00
O4300  O     0.63874   0.41830   0.88847   0.01267  Uiso   1.00
O4301  O     0.52456   0.32962   0.96848   0.01267  Uiso   1.00
O4302  O     0.53188   0.39522   0.96412   0.01267  Uiso   1.00
O4303  O     0.53601   0.46026   0.97063   0.01267  Uiso   1.00
O4304  O     0.60315   0.32731   0.95973   0.01267  Uiso   1.00
O4305  O     0.60559   0.39181   0.97379   0.01267  Uiso   1.00
O4306  O     0.59955   0.45802   0.97035   0.01267  Uiso   1.00
O4307  O     0.33371   0.36897   0.89692   0.01267  Uiso   1.00
O4308  O     0.33550   0.46397   0.90337   0.01267  Uiso   1.00
O4309  O     0.62298   0.42036   0.75105   0.01267  Uiso   1.00
O4310  O     0.60342   0.42736   0.69399   0.01267  Uiso   1.00
O4311  O     0.56762   0.41887   0.99107   0.01267  Uiso   1.00
O4312  O     0.52991   0.42326   0.68964   0.01267  Uiso   1.00
O4313  O     0.53762   0.42216   0.75431   0.01267  Uiso   1.00
O4314  O     0.57987   0.41257   0.74599   0.01267  Uiso   1.00
O4315  O     0.62120   0.31051   0.74623   0.01267  Uiso   1.00
O4316  O     0.60223   0.31028   0.68910   0.01267  Uiso   1.00
O4317  O     0.56486   0.31756   0.98953   0.01267  Uiso   1.00
O4318  O     0.53043   0.30701   0.69549   0.01267  Uiso   1.00
O4319  O     0.53689   0.31355   0.75923   0.01267  Uiso   1.00
O4320  O     0.57817   0.32127   0.74145   0.01267  Uiso   1.00
O4321  O     0.60648   0.36725   0.72145   0.01267  Uiso   1.00
O4322  O     0.52766   0.36664   0.72205   0.01267  Uiso   1.00
O4323  O     0.64126   0.45545   0.79873   0.01267  Uiso   1.00
O4324  O     0.63892   0.38988   0.80465   0.01267  Uiso   1.00
O4325  O     0.63232   0.32484   0.80772   0.01267  Uiso   1.00
O4326  O     0.56538   0.45578   0.79040   0.01267  Uiso   1.00
O4327  O     0.56032   0.39021   0.79977   0.01267  Uiso   1.00
O4328  O     0.56689   0.32472   0.80463   0.01267  Uiso   1.00
O4329  O     0.49774   0.41377   0.73207   0.01267  Uiso   1.00
O4330  O     0.49722   0.32127   0.73556   0.01267  Uiso   1.00
O4331  O     0.45559   0.11226   0.74251   0.01267  Uiso   1.00
O4332  O     0.43460   0.11046   0.79915   0.01267  Uiso   1.00
O4333  O     0.40018   0.11589   0.83959   0.01267  Uiso   1.00
O4334  O     0.36591   0.10870   0.80003   0.01267  Uiso   1.00
O4335  O     0.37033   0.11560   0.73549   0.01267  Uiso   1.00
O4336  O     0.41271   0.12402   0.74506   0.01267  Uiso   1.00
O4337  O     0.45502   0.22726   0.74924   0.01267  Uiso   1.00
O4338  O     0.43525   0.22138   0.80554   0.01267  Uiso   1.00
O4339  O     0.39771   0.21682   0.83767   0.01267  Uiso   1.00
O4340  O     0.36299   0.22703   0.79960   0.01267  Uiso   1.00
O4341  O     0.37035   0.21971   0.73565   0.01267  Uiso   1.00
O4342  O     0.41215   0.21458   0.75075   0.01267  Uiso   1.00
O4343  O     0.44070   0.16816   0.76816   0.01267  Uiso   1.00
O4344  O     0.35999   0.16758   0.77294   0.01267  Uiso   1.00
O4345  O     0.47549   0.07989   0.69411   0.01267  Uiso   1.00
O4346  O     0.47135   0.14523   0.69018   0.01267  Uiso   1.00
O4347  O     0.46530   0.21037   0.68786   0.01267  Uiso   1.00
O4348  O     0.39815   0.07837   0.70287   0.01267  Uiso   1.00
O4349  O     0.39453   0.14248   0.68859   0.01267  Uiso   1.00
O4350  O     0.39939   0.20847   0.68823   0.01267  Uiso   1.00
O4351  O     0.66462   0.11894   0.76138   0.01267  Uiso   1.00
O4352  O     0.66359   0.21399   0.75851   0.01267  Uiso   1.00
O4353  O     0.37681   0.17222   0.91013   0.01267  Uiso   1.00
O4354  O     0.39852   0.17503   0.96601   0.01267  Uiso   1.00
O4355  O     0.43271   0.16889   0.67335   0.01267  Uiso   1.00
O4356  O     0.46670   0.17665   0.96643   0.01267  Uiso   1.00
O4357  O     0.46246   0.16930   0.90200   0.01267  Uiso   1.00
O4358  O     0.41990   0.16195   0.91135   0.01267  Uiso   1.00
O4359  O     0.37747   0.05870   0.91688   0.01267  Uiso   1.00
O4360  O     0.39823   0.06342   0.97259   0.01267  Uiso   1.00
O4361  O     0.43566   0.06871   0.67152   0.01267  Uiso   1.00
O4362  O     0.46995   0.05774   0.96615   0.01267  Uiso   1.00
O4363  O     0.46250   0.06575   0.90228   0.01267  Uiso   1.00
O4364  O     0.42052   0.06938   0.91694   0.01267  Uiso   1.00
O4365  O     0.39303   0.11694   0.93560   0.01267  Uiso   1.00
O4366  O     0.47228   0.11756   0.94015   0.01267  Uiso   1.00
O4367  O     0.35807   0.20544   0.86127   0.01267  Uiso   1.00
O4368  O     0.36186   0.14006   0.85699   0.01267  Uiso   1.00
O4369  O     0.36755   0.07477   0.85511   0.01267  Uiso   1.00
O4370  O     0.43518   0.20711   0.86930   0.01267  Uiso   1.00
O4371  O     0.43813   0.14296   0.85502   0.01267  Uiso   1.00
O4372  O     0.43371   0.07696   0.85469   0.01267  Uiso   1.00
O4373  O     0.50141   0.16553   0.92811   0.01267  Uiso   1.00
O4374  O     0.50249   0.07232   0.92507   0.01267  Uiso   1.00
O4375  O     0.47704   0.26833   0.71090   0.01267  Uiso   1.00
O4376  O     0.39827   0.26690   0.71640   0.01267  Uiso   1.00
O4377  O     0.42530   0.26700   0.85007   0.01267  Uiso   1.00
O4378  O     0.37041   0.26709   0.84939   0.01267  Uiso   1.00
O4379  O     0.35666   0.01637   0.87877   0.01267  Uiso   1.00
O4380  O     0.43552   0.01819   0.88179   0.01267  Uiso   1.00
O4381  O     0.40865   0.01822   0.68425   0.01267  Uiso   1.00
O4382  O     0.46296   0.01819   0.68325   0.01267  Uiso   1.00
O4383  O     0.52145   0.01866   0.95048   0.01267  Uiso   1.00
O4384  O     0.60043   0.01762   0.94449   0.01267  Uiso   1.00
O4385  O     0.57460   0.01665   0.80958   0.01267  Uiso   1.00
O4386  O     0.62924   0.01699   0.81064   0.01267  Uiso   1.00
O4387  O     0.64324   0.26730   0.78227   0.01267  Uiso   1.00
O4388  O     0.56609   0.26711   0.77529   0.01267  Uiso   1.00
O4389  O     0.59144   0.26682   0.97658   0.01267  Uiso   1.00
O4390  O     0.53687   0.26789   0.97785   0.01267  Uiso   1.00
Si4391 Si    0.47398   0.92119   0.71603   0.01267  Uiso   1.00
Si4392 Si    0.43501   0.90689   0.76486   0.01267  Uiso   1.00
Si4393 Si    0.42655   0.92554   0.83811   0.01267  Uiso   1.00
Si4394 Si    0.37391   0.92431   0.83779   0.01267  Uiso   1.00
Si4395 Si    0.35765   0.90704   0.76626   0.01267  Uiso   1.00
Si4396 Si    0.39432   0.92090   0.71654   0.01267  Uiso   1.00
Si4397 Si    0.47448   0.80725   0.72003   0.01267  Uiso   1.00
Si4398 Si    0.43508   0.82772   0.76768   0.01267  Uiso   1.00
Si4399 Si    0.42345   0.80554   0.83889   0.01267  Uiso   1.00
Si4400 Si    0.37229   0.80593   0.83920   0.01267  Uiso   1.00
Si4401 Si    0.35493   0.82789   0.76863   0.01267  Uiso   1.00
Si4402 Si    0.39371   0.80574   0.72430   0.01267  Uiso   1.00
Si4403 Si    0.35843   0.86423   0.88384   0.01267  Uiso   1.00
Si4404 Si    0.39747   0.87849   0.93274   0.01267  Uiso   1.00
Si4405 Si    0.40519   0.85933   0.67259   0.01267  Uiso   1.00
Si4406 Si    0.45744   0.86049   0.67182   0.01267  Uiso   1.00
Si4407 Si    0.47340   0.87867   0.93436   0.01267  Uiso   1.00
Si4408 Si    0.43768   0.86419   0.88303   0.01267  Uiso   1.00
Si4409 Si    0.35841   0.97730   0.88779   0.01267  Uiso   1.00
Si4410 Si    0.39850   0.95772   0.93513   0.01267  Uiso   1.00
Si4411 Si    0.41014   0.97974   0.67285   0.01267  Uiso   1.00
Si4412 Si    0.46117   0.97979   0.67150   0.01267  Uiso   1.00
Si4413 Si    0.47791   0.95789   0.93436   0.01267  Uiso   1.00
Si4414 Si    0.43915   0.97916   0.88968   0.01267  Uiso   1.00
Si4415 Si    0.52519   0.67124   0.94478   0.01267  Uiso   1.00
Si4416 Si    0.56416   0.65602   0.89553   0.01267  Uiso   1.00
Si4417 Si    0.57273   0.67512   0.82275   0.01267  Uiso   1.00
Si4418 Si    0.62544   0.67459   0.82304   0.01267  Uiso   1.00
Si4419 Si    0.64213   0.65628   0.89387   0.01267  Uiso   1.00
Si4420 Si    0.60501   0.66942   0.94357   0.01267  Uiso   1.00
Si4421 Si    0.52503   0.55729   0.94051   0.01267  Uiso   1.00
Si4422 Si    0.56420   0.57722   0.89231   0.01267  Uiso   1.00
Si4423 Si    0.57626   0.55516   0.82089   0.01267  Uiso   1.00
Si4424 Si    0.62731   0.55508   0.82313   0.01267  Uiso   1.00
Si4425 Si    0.64396   0.57696   0.89352   0.01267  Uiso   1.00
Si4426 Si    0.60472   0.55663   0.93756   0.01267  Uiso   1.00
Si4427 Si    0.64093   0.61333   0.77850   0.01267  Uiso   1.00
Si4428 Si    0.60194   0.62750   0.72978   0.01267  Uiso   1.00
Si4429 Si    0.59316   0.60990   0.98989   0.01267  Uiso   1.00
Si4430 Si    0.54047   0.61092   0.99038   0.01267  Uiso   1.00
Si4431 Si    0.52388   0.62818   0.72809   0.01267  Uiso   1.00
Si4432 Si    0.56088   0.61448   0.77761   0.01267  Uiso   1.00
Si4433 Si    0.64068   0.72839   0.77327   0.01267  Uiso   1.00
Si4434 Si    0.60197   0.70635   0.72550   0.01267  Uiso   1.00
Si4435 Si    0.58975   0.72814   0.98715   0.01267  Uiso   1.00
Si4436 Si    0.53867   0.72920   0.98928   0.01267  Uiso   1.00
Si4437 Si    0.52186   0.70739   0.72666   0.01267  Uiso   1.00
Si4438 Si    0.56132   0.72794   0.76984   0.01267  Uiso   1.00
Si4439 Si    0.52314   0.86263   0.94610   0.01267  Uiso   1.00
Si4440 Si    0.57286   0.86101   0.82032   0.01267  Uiso   1.00
Si4441 Si    0.62499   0.86063   0.82262   0.01267  Uiso   1.00
Si4442 Si    0.64137   0.87844   0.89322   0.01267  Uiso   1.00
Si4443 Si    0.60527   0.86452   0.94408   0.01267  Uiso   1.00
Si4444 Si    0.52631   0.98070   0.93920   0.01267  Uiso   1.00
Si4445 Si    0.56260   0.95916   0.89182   0.01267  Uiso   1.00
Si4446 Si    0.57629   0.97759   0.81958   0.01267  Uiso   1.00
Si4447 Si    0.62736   0.97888   0.82342   0.01267  Uiso   1.00
Si4448 Si    0.64328   0.95751   0.89396   0.01267  Uiso   1.00
Si4449 Si    0.60356   0.97842   0.93647   0.01267  Uiso   1.00
Si4450 Si    0.64180   0.92051   0.77895   0.01267  Uiso   1.00
Si4451 Si    0.60324   0.90671   0.72829   0.01267  Uiso   1.00
Si4452 Si    0.59409   0.92403   0.99006   0.01267  Uiso   1.00
Si4453 Si    0.54166   0.92479   0.98738   0.01267  Uiso   1.00
Si4454 Si    0.52339   0.90644   0.72462   0.01267  Uiso   1.00
Si4455 Si    0.56109   0.92013   0.77307   0.01267  Uiso   1.00
Si4456 Si    0.63986   0.80632   0.77410   0.01267  Uiso   1.00
Si4457 Si    0.60205   0.82776   0.72484   0.01267  Uiso   1.00
Si4458 Si    0.59051   0.80566   0.98703   0.01267  Uiso   1.00
Si4459 Si    0.53953   0.80555   0.99155   0.01267  Uiso   1.00
Si4460 Si    0.52303   0.82750   0.72809   0.01267  Uiso   1.00
Si4461 Si    0.56221   0.80657   0.76991   0.01267  Uiso   1.00
Si4462 Si    0.47491   0.61413   0.71514   0.01267  Uiso   1.00
Si4463 Si    0.43590   0.62878   0.76367   0.01267  Uiso   1.00
Si4464 Si    0.42656   0.61147   0.83713   0.01267  Uiso   1.00
Si4465 Si    0.37395   0.60984   0.83793   0.01267  Uiso   1.00
Si4466 Si    0.35683   0.62786   0.76760   0.01267  Uiso   1.00
Si4467 Si    0.39416   0.61511   0.71797   0.01267  Uiso   1.00
Si4468 Si    0.47347   0.72972   0.72068   0.01267  Uiso   1.00
Si4469 Si    0.43562   0.70766   0.76820   0.01267  Uiso   1.00
Si4470 Si    0.42325   0.72806   0.84042   0.01267  Uiso   1.00
Si4471 Si    0.37224   0.72898   0.83691   0.01267  Uiso   1.00
Si4472 Si    0.35585   0.70688   0.76672   0.01267  Uiso   1.00
Si4473 Si    0.39504   0.72748   0.72282   0.01267  Uiso   1.00
Si4474 Si    0.35800   0.67092   0.88199   0.01267  Uiso   1.00
Si4475 Si    0.39701   0.65642   0.93071   0.01267  Uiso   1.00
Si4476 Si    0.40634   0.67379   0.67073   0.01267  Uiso   1.00
Si4477 Si    0.45889   0.67511   0.67113   0.01267  Uiso   1.00
Si4478 Si    0.47577   0.65708   0.93426   0.01267  Uiso   1.00
Si4479 Si    0.43867   0.67019   0.88442   0.01267  Uiso   1.00
Si4480 Si    0.35937   0.55522   0.88797   0.01267  Uiso   1.00
Si4481 Si    0.39745   0.57725   0.93529   0.01267  Uiso   1.00
Si4482 Si    0.41015   0.55712   0.67426   0.01267  Uiso   1.00
Si4483 Si    0.46102   0.55621   0.67036   0.01267  Uiso   1.00
Si4484 Si    0.47682   0.57843   0.93344   0.01267  Uiso   1.00
Si4485 Si    0.43798   0.55753   0.88908   0.01267  Uiso   1.00
Al4486 Al    0.56363   0.87991   0.89509   0.01267  Uiso   1.00
O4487  O     0.45602   0.92143   0.74529   0.01267  Uiso   1.00
O4488  O     0.43302   0.92660   0.79949   0.01267  Uiso   1.00
O4489  O     0.40021   0.92470   0.84297   0.01267  Uiso   1.00
O4490  O     0.36787   0.92384   0.79914   0.01267  Uiso   1.00
O4491  O     0.37062   0.92097   0.73434   0.01267  Uiso   1.00
O4492  O     0.41302   0.91265   0.74357   0.01267  Uiso   1.00
O4493  O     0.45520   0.81232   0.74683   0.01267  Uiso   1.00
O4494  O     0.43557   0.81040   0.80368   0.01267  Uiso   1.00
O4495  O     0.39795   0.81678   0.83560   0.01267  Uiso   1.00
O4496  O     0.36005   0.81212   0.80450   0.01267  Uiso   1.00
O4497  O     0.36958   0.80949   0.74067   0.01267  Uiso   1.00
O4498  O     0.41187   0.81989   0.74995   0.01267  Uiso   1.00
O4499  O     0.43822   0.86745   0.77161   0.01267  Uiso   1.00
O4500  O     0.36071   0.86710   0.76886   0.01267  Uiso   1.00
O4501  O     0.47434   0.95708   0.69782   0.01267  Uiso   1.00
O4502  O     0.46836   0.89291   0.68875   0.01267  Uiso   1.00
O4503  O     0.46879   0.82703   0.68618   0.01267  Uiso   1.00
O4504  O     0.39810   0.95725   0.70045   0.01267  Uiso   1.00
O4505  O     0.39456   0.89288   0.68781   0.01267  Uiso   1.00
O4506  O     0.39493   0.82649   0.69003   0.01267  Uiso   1.00
O4507  O     0.66552   0.91696   0.76143   0.01267  Uiso   1.00
O4508  O     0.66258   0.82216   0.76016   0.01267  Uiso   1.00
O4509  O     0.37490   0.86781   0.91489   0.01267  Uiso   1.00
O4510  O     0.39992   0.85786   0.96689   0.01267  Uiso   1.00
O4511  O     0.43144   0.85982   0.67943   0.01267  Uiso   1.00
O4512  O     0.46153   0.86169   0.96584   0.01267  Uiso   1.00
O4513  O     0.46129   0.86629   0.90125   0.01267  Uiso   1.00
O4514  O     0.41820   0.86995   0.90938   0.01267  Uiso   1.00
O4515  O     0.37777   0.97099   0.91430   0.01267  Uiso   1.00
O4516  O     0.39823   0.97570   0.97076   0.01267  Uiso   1.00
O4517  O     0.43565   0.96804   0.66996   0.01267  Uiso   1.00
O4518  O     0.47188   0.97628   0.96859   0.01267  Uiso   1.00
O4519  O     0.46362   0.97348   0.90444   0.01267  Uiso   1.00
O4520  O     0.42129   0.96659   0.91653   0.01267  Uiso   1.00
O4521  O     0.39712   0.91792   0.94047   0.01267  Uiso   1.00
O4522  O     0.47235   0.91861   0.93790   0.01267  Uiso   1.00
O4523  O     0.36089   0.82739   0.86810   0.01267  Uiso   1.00
O4524  O     0.36393   0.89154   0.85555   0.01267  Uiso   1.00
O4525  O     0.36359   0.95768   0.85376   0.01267  Uiso   1.00
O4526  O     0.43558   0.82757   0.86677   0.01267  Uiso   1.00
O4527  O     0.43686   0.89220   0.85440   0.01267  Uiso   1.00
O4528  O     0.43645   0.95849   0.85563   0.01267  Uiso   1.00
O4529  O     0.49875   0.86661   0.93202   0.01267  Uiso   1.00
O4530  O     0.50374   0.96316   0.92661   0.01267  Uiso   1.00
O4531  O     0.54360   0.67053   0.91620   0.01267  Uiso   1.00
O4532  O     0.56594   0.67668   0.86130   0.01267  Uiso   1.00
O4533  O     0.59912   0.67257   0.81865   0.01267  Uiso   1.00
O4534  O     0.63202   0.67439   0.86155   0.01267  Uiso   1.00
O4535  O     0.62891   0.66848   0.92626   0.01267  Uiso   1.00
O4536  O     0.58654   0.66069   0.91632   0.01267  Uiso   1.00
O4537  O     0.54431   0.56143   0.91347   0.01267  Uiso   1.00
O4538  O     0.56445   0.55981   0.85641   0.01267  Uiso   1.00
O4539  O     0.60178   0.56689   0.82360   0.01267  Uiso   1.00
O4540  O     0.63730   0.55793   0.85988   0.01267  Uiso   1.00
O4541  O     0.62946   0.56251   0.92383   0.01267  Uiso   1.00
O4542  O     0.58751   0.57087   0.91047   0.01267  Uiso   1.00
O4543  O     0.56041   0.61690   0.88800   0.01267  Uiso   1.00
O4544  O     0.63966   0.61645   0.88917   0.01267  Uiso   1.00
O4545  O     0.52527   0.70749   0.96245   0.01267  Uiso   1.00
O4546  O     0.52951   0.64300   0.97256   0.01267  Uiso   1.00
O4547  O     0.53126   0.57705   0.97402   0.01267  Uiso   1.00
O4548  O     0.60122   0.70630   0.95852   0.01267  Uiso   1.00
O4549  O     0.60432   0.64246   0.97327   0.01267  Uiso   1.00
O4550  O     0.60168   0.57627   0.97213   0.01267  Uiso   1.00
O4551  O     0.33424   0.66664   0.89923   0.01267  Uiso   1.00
O4552  O     0.33634   0.57036   0.90129   0.01267  Uiso   1.00
O4553  O     0.62236   0.61223   0.75011   0.01267  Uiso   1.00
O4554  O     0.60004   0.60810   0.69497   0.01267  Uiso   1.00
O4555  O     0.56677   0.61299   0.98591   0.01267  Uiso   1.00
O4556  O     0.53389   0.61042   0.69555   0.01267  Uiso   1.00
O4557  O     0.53697   0.61539   0.76030   0.01267  Uiso   1.00
O4558  O     0.57940   0.62250   0.75015   0.01267  Uiso   1.00
O4559  O     0.62162   0.72361   0.74595   0.01267  Uiso   1.00
O4560  O     0.60180   0.72215   0.68885   0.01267  Uiso   1.00
O4561  O     0.56408   0.71723   0.99043   0.01267  Uiso   1.00
O4562  O     0.52789   0.72536   0.69208   0.01267  Uiso   1.00
O4563  O     0.53650   0.72310   0.75614   0.01267  Uiso   1.00
O4564  O     0.57844   0.71293   0.74306   0.01267  Uiso   1.00
O4565  O     0.60614   0.66672   0.72327   0.01267  Uiso   1.00
O4566  O     0.52669   0.66802   0.72375   0.01267  Uiso   1.00
O4567  O     0.64119   0.57820   0.79801   0.01267  Uiso   1.00
O4568  O     0.63644   0.64304   0.80463   0.01267  Uiso   1.00
O4569  O     0.63448   0.70885   0.80701   0.01267  Uiso   1.00
O4570  O     0.56426   0.57786   0.79332   0.01267  Uiso   1.00
O4571  O     0.56170   0.64239   0.80642   0.01267  Uiso   1.00
O4572  O     0.56401   0.70873   0.80480   0.01267  Uiso   1.00
O4573  O     0.49832   0.61850   0.73333   0.01267  Uiso   1.00
O4574  O     0.49614   0.71387   0.73464   0.01267  Uiso   1.00
O4575  O     0.53960   0.85663   0.91314   0.01267  Uiso   1.00
O4576  O     0.56504   0.86067   0.85763   0.01267  Uiso   1.00
O4577  O     0.59919   0.86732   0.81606   0.01267  Uiso   1.00
O4578  O     0.63060   0.86023   0.86146   0.01267  Uiso   1.00
O4579  O     0.62910   0.86596   0.92612   0.01267  Uiso   1.00
O4580  O     0.58552   0.87173   0.91963   0.01267  Uiso   1.00
O4581  O     0.54403   0.98202   0.90968   0.01267  Uiso   1.00
O4582  O     0.56341   0.97089   0.85361   0.01267  Uiso   1.00
O4583  O     0.60191   0.96688   0.82371   0.01267  Uiso   1.00
O4584  O     0.63743   0.97710   0.86021   0.01267  Uiso   1.00
O4585  O     0.62844   0.97177   0.92383   0.01267  Uiso   1.00
O4586  O     0.58655   0.96707   0.90804   0.01267  Uiso   1.00
O4587  O     0.55613   0.92088   0.89557   0.01267  Uiso   1.00
O4588  O     0.63874   0.91830   0.88847   0.01267  Uiso   1.00
O4589  O     0.52456   0.82962   0.96848   0.01267  Uiso   1.00
O4590  O     0.53188   0.89522   0.96412   0.01267  Uiso   1.00
O4591  O     0.53601   0.96026   0.97063   0.01267  Uiso   1.00
O4592  O     0.60315   0.82731   0.95973   0.01267  Uiso   1.00
O4593  O     0.60559   0.89181   0.97379   0.01267  Uiso   1.00
O4594  O     0.59955   0.95802   0.97035   0.01267  Uiso   1.00
O4595  O     0.33371   0.86897   0.89692   0.01267  Uiso   1.00
O4596  O     0.33550   0.96397   0.90337   0.01267  Uiso   1.00
O4597  O     0.62298   0.92036   0.75105   0.01267  Uiso   1.00
O4598  O     0.60342   0.92736   0.69399   0.01267  Uiso   1.00
O4599  O     0.56762   0.91887   0.99107   0.01267  Uiso   1.00
O4600  O     0.52991   0.92326   0.68964   0.01267  Uiso   1.00
O4601  O     0.53762   0.92216   0.75431   0.01267  Uiso   1.00
O4602  O     0.57987   0.91257   0.74599   0.01267  Uiso   1.00
O4603  O     0.62120   0.81051   0.74623   0.01267  Uiso   1.00
O4604  O     0.60223   0.81028   0.68910   0.01267  Uiso   1.00
O4605  O     0.56486   0.81756   0.98953   0.01267  Uiso   1.00
O4606  O     0.53043   0.80701   0.69549   0.01267  Uiso   1.00
O4607  O     0.53689   0.81355   0.75923   0.01267  Uiso   1.00
O4608  O     0.57817   0.82127   0.74145   0.01267  Uiso   1.00
O4609  O     0.60648   0.86725   0.72145   0.01267  Uiso   1.00
O4610  O     0.52766   0.86664   0.72205   0.01267  Uiso   1.00
O4611  O     0.64126   0.95545   0.79873   0.01267  Uiso   1.00
O4612  O     0.63892   0.88988   0.80465   0.01267  Uiso   1.00
O4613  O     0.63232   0.82484   0.80772   0.01267  Uiso   1.00
O4614  O     0.56538   0.95578   0.79040   0.01267  Uiso   1.00
O4615  O     0.56032   0.89021   0.79977   0.01267  Uiso   1.00
O4616  O     0.56689   0.82472   0.80463   0.01267  Uiso   1.00
O4617  O     0.49774   0.91377   0.73207   0.01267  Uiso   1.00
O4618  O     0.49722   0.82127   0.73556   0.01267  Uiso   1.00
O4619  O     0.45559   0.61226   0.74251   0.01267  Uiso   1.00
O4620  O     0.43460   0.61046   0.79915   0.01267  Uiso   1.00
O4621  O     0.40018   0.61589   0.83959   0.01267  Uiso   1.00
O4622  O     0.36591   0.60870   0.80003   0.01267  Uiso   1.00
O4623  O     0.37033   0.61560   0.73549   0.01267  Uiso   1.00
O4624  O     0.41271   0.62402   0.74506   0.01267  Uiso   1.00
O4625  O     0.45502   0.72726   0.74924   0.01267  Uiso   1.00
O4626  O     0.43525   0.72138   0.80554   0.01267  Uiso   1.00
O4627  O     0.39771   0.71682   0.83767   0.01267  Uiso   1.00
O4628  O     0.36299   0.72703   0.79960   0.01267  Uiso   1.00
O4629  O     0.37035   0.71971   0.73565   0.01267  Uiso   1.00
O4630  O     0.41215   0.71458   0.75075   0.01267  Uiso   1.00
O4631  O     0.44070   0.66816   0.76816   0.01267  Uiso   1.00
O4632  O     0.35999   0.66758   0.77294   0.01267  Uiso   1.00
O4633  O     0.47549   0.57989   0.69411   0.01267  Uiso   1.00
O4634  O     0.47135   0.64523   0.69018   0.01267  Uiso   1.00
O4635  O     0.46530   0.71037   0.68786   0.01267  Uiso   1.00
O4636  O     0.39815   0.57837   0.70287   0.01267  Uiso   1.00
O4637  O     0.39453   0.64248   0.68859   0.01267  Uiso   1.00
O4638  O     0.39939   0.70847   0.68823   0.01267  Uiso   1.00
O4639  O     0.66462   0.61894   0.76138   0.01267  Uiso   1.00
O4640  O     0.66359   0.71399   0.75851   0.01267  Uiso   1.00
O4641  O     0.37681   0.67222   0.91013   0.01267  Uiso   1.00
O4642  O     0.39852   0.67503   0.96601   0.01267  Uiso   1.00
O4643  O     0.43271   0.66889   0.67335   0.01267  Uiso   1.00
O4644  O     0.46670   0.67665   0.96643   0.01267  Uiso   1.00
O4645  O     0.46246   0.66930   0.90200   0.01267  Uiso   1.00
O4646  O     0.41990   0.66195   0.91135   0.01267  Uiso   1.00
O4647  O     0.37747   0.55870   0.91688   0.01267  Uiso   1.00
O4648  O     0.39823   0.56342   0.97259   0.01267  Uiso   1.00
O4649  O     0.43566   0.56871   0.67152   0.01267  Uiso   1.00
O4650  O     0.46995   0.55774   0.96615   0.01267  Uiso   1.00
O4651  O     0.46250   0.56575   0.90228   0.01267  Uiso   1.00
O4652  O     0.42052   0.56938   0.91694   0.01267  Uiso   1.00
O4653  O     0.39303   0.61694   0.93560   0.01267  Uiso   1.00
O4654  O     0.47228   0.61756   0.94015   0.01267  Uiso   1.00
O4655  O     0.35807   0.70544   0.86127   0.01267  Uiso   1.00
O4656  O     0.36186   0.64006   0.85699   0.01267  Uiso   1.00
O4657  O     0.36755   0.57477   0.85511   0.01267  Uiso   1.00
O4658  O     0.43518   0.70711   0.86930   0.01267  Uiso   1.00
O4659  O     0.43813   0.64296   0.85502   0.01267  Uiso   1.00
O4660  O     0.43371   0.57696   0.85469   0.01267  Uiso   1.00
O4661  O     0.50141   0.66553   0.92811   0.01267  Uiso   1.00
O4662  O     0.50249   0.57232   0.92507   0.01267  Uiso   1.00
O4663  O     0.47704   0.76833   0.71090   0.01267  Uiso   1.00
O4664  O     0.39827   0.76690   0.71640   0.01267  Uiso   1.00
O4665  O     0.42530   0.76700   0.85007   0.01267  Uiso   1.00
O4666  O     0.37041   0.76709   0.84939   0.01267  Uiso   1.00
O4667  O     0.35666   0.51637   0.87877   0.01267  Uiso   1.00
O4668  O     0.43552   0.51819   0.88179   0.01267  Uiso   1.00
O4669  O     0.40865   0.51822   0.68425   0.01267  Uiso   1.00
O4670  O     0.46296   0.51819   0.68325   0.01267  Uiso   1.00
O4671  O     0.52145   0.51866   0.95048   0.01267  Uiso   1.00
O4672  O     0.60043   0.51762   0.94449   0.01267  Uiso   1.00
O4673  O     0.57460   0.51665   0.80958   0.01267  Uiso   1.00
O4674  O     0.62924   0.51699   0.81064   0.01267  Uiso   1.00
O4675  O     0.64324   0.76730   0.78227   0.01267  Uiso   1.00
O4676  O     0.56609   0.76711   0.77529   0.01267  Uiso   1.00
O4677  O     0.59144   0.76682   0.97658   0.01267  Uiso   1.00
O4678  O     0.53687   0.76789   0.97785   0.01267  Uiso   1.00
H4679  H     0.53696   0.83470   0.90199   0.01267  Uiso   1.00
H4680  H     0.47267   0.77145   0.88326   0.01267  Uiso   1.00
H4681  H     0.50391   0.76659   0.92831   0.01267  Uiso   1.00
H4682  H     0.48877   0.79076   0.82594   0.01267  Uiso   1.00
H4683  H     0.53170   0.80035   0.82941   0.01267  Uiso   1.00
C4684  C     0.49860   0.78716   0.84798   0.01267  Uiso   1.00
C4685  C     0.52076   0.79220   0.84881   0.01267  Uiso   1.00
C4686  C     0.48991   0.77679   0.87894   0.01267  Uiso   1.00
C4687  C     0.50560   0.77421   0.90283   0.01267  Uiso   1.00
S4688  S     0.53117   0.78357   0.88726   0.01267  Uiso   1.00
Si4689 Si    0.80731   0.42119   0.71603   0.01267  Uiso   1.00
Si4690 Si    0.76835   0.40689   0.76486   0.01267  Uiso   1.00
Si4691 Si    0.75989   0.42554   0.83811   0.01267  Uiso   1.00
Si4692 Si    0.70725   0.42431   0.83779   0.01267  Uiso   1.00
Si4693 Si    0.69098   0.40704   0.76626   0.01267  Uiso   1.00
Si4694 Si    0.72765   0.42090   0.71654   0.01267  Uiso   1.00
Si4695 Si    0.80782   0.30725   0.72003   0.01267  Uiso   1.00
Si4696 Si    0.76841   0.32772   0.76768   0.01267  Uiso   1.00
Si4697 Si    0.75679   0.30554   0.83889   0.01267  Uiso   1.00
Si4698 Si    0.70563   0.30593   0.83920   0.01267  Uiso   1.00
Si4699 Si    0.68827   0.32789   0.76863   0.01267  Uiso   1.00
Si4700 Si    0.72704   0.30574   0.72430   0.01267  Uiso   1.00
Si4701 Si    0.69177   0.36423   0.88384   0.01267  Uiso   1.00
Si4702 Si    0.73081   0.37849   0.93274   0.01267  Uiso   1.00
Si4703 Si    0.73853   0.35933   0.67259   0.01267  Uiso   1.00
Si4704 Si    0.79078   0.36049   0.67182   0.01267  Uiso   1.00
Si4705 Si    0.80673   0.37867   0.93436   0.01267  Uiso   1.00
Si4706 Si    0.77101   0.36419   0.88303   0.01267  Uiso   1.00
Si4707 Si    0.69174   0.47730   0.88779   0.01267  Uiso   1.00
Si4708 Si    0.73184   0.45772   0.93513   0.01267  Uiso   1.00
Si4709 Si    0.74347   0.47974   0.67285   0.01267  Uiso   1.00
Si4710 Si    0.79450   0.47979   0.67150   0.01267  Uiso   1.00
Si4711 Si    0.81124   0.45789   0.93436   0.01267  Uiso   1.00
Si4712 Si    0.77249   0.47916   0.88968   0.01267  Uiso   1.00
Si4713 Si    0.85852   0.17124   0.94478   0.01267  Uiso   1.00
Si4714 Si    0.89749   0.15602   0.89553   0.01267  Uiso   1.00
Si4715 Si    0.90607   0.17512   0.82275   0.01267  Uiso   1.00
Si4716 Si    0.95877   0.17459   0.82304   0.01267  Uiso   1.00
Si4717 Si    0.97546   0.15628   0.89387   0.01267  Uiso   1.00
Si4718 Si    0.93834   0.16942   0.94357   0.01267  Uiso   1.00
Si4719 Si    0.85836   0.05729   0.94051   0.01267  Uiso   1.00
Si4720 Si    0.89754   0.07722   0.89231   0.01267  Uiso   1.00
Si4721 Si    0.90959   0.05516   0.82089   0.01267  Uiso   1.00
Si4722 Si    0.96064   0.05508   0.82313   0.01267  Uiso   1.00
Si4723 Si    0.97729   0.07696   0.89352   0.01267  Uiso   1.00
Si4724 Si    0.93806   0.05663   0.93756   0.01267  Uiso   1.00
Si4725 Si    0.97426   0.11333   0.77850   0.01267  Uiso   1.00
Si4726 Si    0.93527   0.12750   0.72978   0.01267  Uiso   1.00
Si4727 Si    0.92649   0.10990   0.98989   0.01267  Uiso   1.00
Si4728 Si    0.87380   0.11092   0.99038   0.01267  Uiso   1.00
Si4729 Si    0.85722   0.12818   0.72809   0.01267  Uiso   1.00
Si4730 Si    0.89421   0.11448   0.77761   0.01267  Uiso   1.00
Si4731 Si    0.97401   0.22839   0.77327   0.01267  Uiso   1.00
Si4732 Si    0.93530   0.20635   0.72550   0.01267  Uiso   1.00
Si4733 Si    0.92309   0.22814   0.98715   0.01267  Uiso   1.00
Si4734 Si    0.87200   0.22920   0.98928   0.01267  Uiso   1.00
Si4735 Si    0.85519   0.20739   0.72666   0.01267  Uiso   1.00
Si4736 Si    0.89466   0.22794   0.76984   0.01267  Uiso   1.00
Si4737 Si    0.85647   0.36263   0.94610   0.01267  Uiso   1.00
Si4738 Si    0.90619   0.36101   0.82032   0.01267  Uiso   1.00
Si4739 Si    0.95832   0.36063   0.82262   0.01267  Uiso   1.00
Si4740 Si    0.97471   0.37844   0.89322   0.01267  Uiso   1.00
Si4741 Si    0.93860   0.36452   0.94408   0.01267  Uiso   1.00
Si4742 Si    0.85965   0.48070   0.93920   0.01267  Uiso   1.00
Si4743 Si    0.89594   0.45916   0.89182   0.01267  Uiso   1.00
Si4744 Si    0.90962   0.47759   0.81958   0.01267  Uiso   1.00
Si4745 Si    0.96069   0.47888   0.82342   0.01267  Uiso   1.00
Si4746 Si    0.97662   0.45751   0.89396   0.01267  Uiso   1.00
Si4747 Si    0.93689   0.47842   0.93647   0.01267  Uiso   1.00
Si4748 Si    0.97514   0.42051   0.77895   0.01267  Uiso   1.00
Si4749 Si    0.93657   0.40671   0.72829   0.01267  Uiso   1.00
Si4750 Si    0.92742   0.42403   0.99006   0.01267  Uiso   1.00
Si4751 Si    0.87499   0.42479   0.98738   0.01267  Uiso   1.00
Si4752 Si    0.85672   0.40644   0.72462   0.01267  Uiso   1.00
Si4753 Si    0.89443   0.42013   0.77307   0.01267  Uiso   1.00
Si4754 Si    0.97319   0.30632   0.77410   0.01267  Uiso   1.00
Si4755 Si    0.93539   0.32776   0.72484   0.01267  Uiso   1.00
Si4756 Si    0.92384   0.30566   0.98703   0.01267  Uiso   1.00
Si4757 Si    0.87286   0.30555   0.99155   0.01267  Uiso   1.00
Si4758 Si    0.85636   0.32750   0.72809   0.01267  Uiso   1.00
Si4759 Si    0.89555   0.30657   0.76991   0.01267  Uiso   1.00
Si4760 Si    0.80824   0.11413   0.71514   0.01267  Uiso   1.00
Si4761 Si    0.76923   0.12878   0.76367   0.01267  Uiso   1.00
Si4762 Si    0.75989   0.11147   0.83713   0.01267  Uiso   1.00
Si4763 Si    0.70728   0.10984   0.83793   0.01267  Uiso   1.00
Si4764 Si    0.69017   0.12786   0.76760   0.01267  Uiso   1.00
Si4765 Si    0.72749   0.11511   0.71797   0.01267  Uiso   1.00
Si4766 Si    0.80680   0.22972   0.72068   0.01267  Uiso   1.00
Si4767 Si    0.76895   0.20766   0.76820   0.01267  Uiso   1.00
Si4768 Si    0.75658   0.22806   0.84042   0.01267  Uiso   1.00
Si4769 Si    0.70557   0.22898   0.83691   0.01267  Uiso   1.00
Si4770 Si    0.68919   0.20688   0.76672   0.01267  Uiso   1.00
Si4771 Si    0.72837   0.22748   0.72282   0.01267  Uiso   1.00
Si4772 Si    0.69133   0.17092   0.88199   0.01267  Uiso   1.00
Si4773 Si    0.73034   0.15642   0.93071   0.01267  Uiso   1.00
Si4774 Si    0.73967   0.17379   0.67073   0.01267  Uiso   1.00
Si4775 Si    0.79222   0.17511   0.67113   0.01267  Uiso   1.00
Si4776 Si    0.80911   0.15708   0.93426   0.01267  Uiso   1.00
Si4777 Si    0.77201   0.17019   0.88442   0.01267  Uiso   1.00
Si4778 Si    0.69270   0.05522   0.88797   0.01267  Uiso   1.00
Si4779 Si    0.73079   0.07725   0.93529   0.01267  Uiso   1.00
Si4780 Si    0.74348   0.05712   0.67426   0.01267  Uiso   1.00
Si4781 Si    0.79436   0.05621   0.67036   0.01267  Uiso   1.00
Si4782 Si    0.81015   0.07843   0.93344   0.01267  Uiso   1.00
Si4783 Si    0.77131   0.05753   0.88908   0.01267  Uiso   1.00
Al4784 Al    0.89696   0.37991   0.89509   0.01267  Uiso   1.00
O4785  O     0.78935   0.42143   0.74529   0.01267  Uiso   1.00
O4786  O     0.76635   0.42660   0.79949   0.01267  Uiso   1.00
O4787  O     0.73354   0.42470   0.84297   0.01267  Uiso   1.00
O4788  O     0.70120   0.42384   0.79914   0.01267  Uiso   1.00
O4789  O     0.70395   0.42097   0.73434   0.01267  Uiso   1.00
O4790  O     0.74635   0.41265   0.74357   0.01267  Uiso   1.00
O4791  O     0.78853   0.31232   0.74683   0.01267  Uiso   1.00
O4792  O     0.76890   0.31040   0.80368   0.01267  Uiso   1.00
O4793  O     0.73128   0.31678   0.83560   0.01267  Uiso   1.00
O4794  O     0.69339   0.31212   0.80450   0.01267  Uiso   1.00
O4795  O     0.70292   0.30949   0.74067   0.01267  Uiso   1.00
O4796  O     0.74520   0.31989   0.74995   0.01267  Uiso   1.00
O4797  O     0.77155   0.36745   0.77161   0.01267  Uiso   1.00
O4798  O     0.69404   0.36710   0.76886   0.01267  Uiso   1.00
O4799  O     0.80768   0.45708   0.69782   0.01267  Uiso   1.00
O4800  O     0.80169   0.39291   0.68875   0.01267  Uiso   1.00
O4801  O     0.80213   0.32703   0.68618   0.01267  Uiso   1.00
O4802  O     0.73143   0.45725   0.70045   0.01267  Uiso   1.00
O4803  O     0.72790   0.39288   0.68781   0.01267  Uiso   1.00
O4804  O     0.72826   0.32649   0.69003   0.01267  Uiso   1.00
O4805  O     0.99885   0.41696   0.76143   0.01267  Uiso   1.00
O4806  O     0.99591   0.32216   0.76016   0.01267  Uiso   1.00
O4807  O     0.70823   0.36781   0.91489   0.01267  Uiso   1.00
O4808  O     0.73326   0.35786   0.96689   0.01267  Uiso   1.00
O4809  O     0.76478   0.35982   0.67943   0.01267  Uiso   1.00
O4810  O     0.79487   0.36169   0.96584   0.01267  Uiso   1.00
O4811  O     0.79462   0.36629   0.90125   0.01267  Uiso   1.00
O4812  O     0.75153   0.36995   0.90938   0.01267  Uiso   1.00
O4813  O     0.71110   0.47099   0.91430   0.01267  Uiso   1.00
O4814  O     0.73156   0.47570   0.97076   0.01267  Uiso   1.00
O4815  O     0.76898   0.46804   0.66996   0.01267  Uiso   1.00
O4816  O     0.80522   0.47628   0.96859   0.01267  Uiso   1.00
O4817  O     0.79695   0.47348   0.90444   0.01267  Uiso   1.00
O4818  O     0.75463   0.46659   0.91653   0.01267  Uiso   1.00
O4819  O     0.73046   0.41792   0.94047   0.01267  Uiso   1.00
O4820  O     0.80568   0.41861   0.93790   0.01267  Uiso   1.00
O4821  O     0.69422   0.32739   0.86810   0.01267  Uiso   1.00
O4822  O     0.69727   0.39154   0.85555   0.01267  Uiso   1.00
O4823  O     0.69692   0.45768   0.85376   0.01267  Uiso   1.00
O4824  O     0.76891   0.32757   0.86677   0.01267  Uiso   1.00
O4825  O     0.77020   0.39220   0.85440   0.01267  Uiso   1.00
O4826  O     0.76978   0.45849   0.85563   0.01267  Uiso   1.00
O4827  O     0.83208   0.36661   0.93202   0.01267  Uiso   1.00
O4828  O     0.83707   0.46316   0.92661   0.01267  Uiso   1.00
O4829  O     0.87693   0.17053   0.91620   0.01267  Uiso   1.00
O4830  O     0.89927   0.17668   0.86130   0.01267  Uiso   1.00
O4831  O     0.93245   0.17257   0.81865   0.01267  Uiso   1.00
O4832  O     0.96536   0.17439   0.86155   0.01267  Uiso   1.00
O4833  O     0.96224   0.16848   0.92626   0.01267  Uiso   1.00
O4834  O     0.91987   0.16069   0.91632   0.01267  Uiso   1.00
O4835  O     0.87765   0.06143   0.91347   0.01267  Uiso   1.00
O4836  O     0.89778   0.05981   0.85641   0.01267  Uiso   1.00
O4837  O     0.93511   0.06689   0.82360   0.01267  Uiso   1.00
O4838  O     0.97064   0.05793   0.85988   0.01267  Uiso   1.00
O4839  O     0.96280   0.06251   0.92383   0.01267  Uiso   1.00
O4840  O     0.92084   0.07087   0.91047   0.01267  Uiso   1.00
O4841  O     0.89375   0.11690   0.88800   0.01267  Uiso   1.00
O4842  O     0.97299   0.11645   0.88917   0.01267  Uiso   1.00
O4843  O     0.85860   0.20749   0.96245   0.01267  Uiso   1.00
O4844  O     0.86285   0.14300   0.97256   0.01267  Uiso   1.00
O4845  O     0.86460   0.07705   0.97402   0.01267  Uiso   1.00
O4846  O     0.93455   0.20630   0.95852   0.01267  Uiso   1.00
O4847  O     0.93765   0.14246   0.97327   0.01267  Uiso   1.00
O4848  O     0.93501   0.07627   0.97213   0.01267  Uiso   1.00
O4849  O     0.66757   0.16664   0.89923   0.01267  Uiso   1.00
O4850  O     0.66968   0.07036   0.90129   0.01267  Uiso   1.00
O4851  O     0.95570   0.11223   0.75011   0.01267  Uiso   1.00
O4852  O     0.93337   0.10810   0.69497   0.01267  Uiso   1.00
O4853  O     0.90011   0.11299   0.98591   0.01267  Uiso   1.00
O4854  O     0.86722   0.11042   0.69555   0.01267  Uiso   1.00
O4855  O     0.87031   0.11539   0.76030   0.01267  Uiso   1.00
O4856  O     0.91274   0.12250   0.75015   0.01267  Uiso   1.00
O4857  O     0.95495   0.22361   0.74595   0.01267  Uiso   1.00
O4858  O     0.93513   0.22215   0.68885   0.01267  Uiso   1.00
O4859  O     0.89741   0.21723   0.99043   0.01267  Uiso   1.00
O4860  O     0.86123   0.22536   0.69208   0.01267  Uiso   1.00
O4861  O     0.86983   0.22310   0.75614   0.01267  Uiso   1.00
O4862  O     0.91177   0.21293   0.74306   0.01267  Uiso   1.00
O4863  O     0.93947   0.16672   0.72327   0.01267  Uiso   1.00
O4864  O     0.86003   0.16802   0.72375   0.01267  Uiso   1.00
O4865  O     0.97452   0.07820   0.79801   0.01267  Uiso   1.00
O4866  O     0.96977   0.14304   0.80463   0.01267  Uiso   1.00
O4867  O     0.96782   0.20885   0.80701   0.01267  Uiso   1.00
O4868  O     0.89759   0.07786   0.79332   0.01267  Uiso   1.00
O4869  O     0.89503   0.14239   0.80642   0.01267  Uiso   1.00
O4870  O     0.89734   0.20873   0.80480   0.01267  Uiso   1.00
O4871  O     0.83165   0.11850   0.73333   0.01267  Uiso   1.00
O4872  O     0.82947   0.21387   0.73464   0.01267  Uiso   1.00
O4873  O     0.87293   0.35663   0.91314   0.01267  Uiso   1.00
O4874  O     0.89837   0.36067   0.85763   0.01267  Uiso   1.00
O4875  O     0.93253   0.36732   0.81606   0.01267  Uiso   1.00
O4876  O     0.96393   0.36023   0.86146   0.01267  Uiso   1.00
O4877  O     0.96243   0.36596   0.92612   0.01267  Uiso   1.00
O4878  O     0.91886   0.37173   0.91963   0.01267  Uiso   1.00
O4879  O     0.87736   0.48202   0.90968   0.01267  Uiso   1.00
O4880  O     0.89674   0.47089   0.85361   0.01267  Uiso   1.00
O4881  O     0.93524   0.46688   0.82371   0.01267  Uiso   1.00
O4882  O     0.97076   0.47710   0.86021   0.01267  Uiso   1.00
O4883  O     0.96177   0.47177   0.92383   0.01267  Uiso   1.00
O4884  O     0.91988   0.46707   0.90804   0.01267  Uiso   1.00
O4885  O     0.88946   0.42088   0.89557   0.01267  Uiso   1.00
O4886  O     0.97207   0.41830   0.88847   0.01267  Uiso   1.00
O4887  O     0.85790   0.32962   0.96848   0.01267  Uiso   1.00
O4888  O     0.86521   0.39522   0.96412   0.01267  Uiso   1.00
O4889  O     0.86934   0.46026   0.97063   0.01267  Uiso   1.00
O4890  O     0.93648   0.32731   0.95973   0.01267  Uiso   1.00
O4891  O     0.93892   0.39181   0.97379   0.01267  Uiso   1.00
O4892  O     0.93289   0.45802   0.97035   0.01267  Uiso   1.00
O4893  O     0.66705   0.36897   0.89692   0.01267  Uiso   1.00
O4894  O     0.66883   0.46397   0.90337   0.01267  Uiso   1.00
O4895  O     0.95631   0.42036   0.75105   0.01267  Uiso   1.00
O4896  O     0.93675   0.42736   0.69399   0.01267  Uiso   1.00
O4897  O     0.90096   0.41887   0.99107   0.01267  Uiso   1.00
O4898  O     0.86324   0.42326   0.68964   0.01267  Uiso   1.00
O4899  O     0.87095   0.42216   0.75431   0.01267  Uiso   1.00
O4900  O     0.91321   0.41257   0.74599   0.01267  Uiso   1.00
O4901  O     0.95453   0.31051   0.74623   0.01267  Uiso   1.00
O4902  O     0.93556   0.31028   0.68910   0.01267  Uiso   1.00
O4903  O     0.89819   0.31756   0.98953   0.01267  Uiso   1.00
O4904  O     0.86377   0.30701   0.69549   0.01267  Uiso   1.00
O4905  O     0.87022   0.31355   0.75923   0.01267  Uiso   1.00
O4906  O     0.91151   0.32127   0.74145   0.01267  Uiso   1.00
O4907  O     0.93981   0.36725   0.72145   0.01267  Uiso   1.00
O4908  O     0.86100   0.36664   0.72205   0.01267  Uiso   1.00
O4909  O     0.97459   0.45545   0.79873   0.01267  Uiso   1.00
O4910  O     0.97225   0.38988   0.80465   0.01267  Uiso   1.00
O4911  O     0.96565   0.32484   0.80772   0.01267  Uiso   1.00
O4912  O     0.89871   0.45578   0.79040   0.01267  Uiso   1.00
O4913  O     0.89365   0.39021   0.79977   0.01267  Uiso   1.00
O4914  O     0.90022   0.32472   0.80463   0.01267  Uiso   1.00
O4915  O     0.83107   0.41377   0.73207   0.01267  Uiso   1.00
O4916  O     0.83056   0.32127   0.73556   0.01267  Uiso   1.00
O4917  O     0.78892   0.11226   0.74251   0.01267  Uiso   1.00
O4918  O     0.76793   0.11046   0.79915   0.01267  Uiso   1.00
O4919  O     0.73352   0.11589   0.83959   0.01267  Uiso   1.00
O4920  O     0.69924   0.10870   0.80003   0.01267  Uiso   1.00
O4921  O     0.70366   0.11560   0.73549   0.01267  Uiso   1.00
O4922  O     0.74604   0.12402   0.74506   0.01267  Uiso   1.00
O4923  O     0.78836   0.22726   0.74924   0.01267  Uiso   1.00
O4924  O     0.76858   0.22138   0.80554   0.01267  Uiso   1.00
O4925  O     0.73104   0.21682   0.83767   0.01267  Uiso   1.00
O4926  O     0.69633   0.22703   0.79960   0.01267  Uiso   1.00
O4927  O     0.70368   0.21971   0.73565   0.01267  Uiso   1.00
O4928  O     0.74548   0.21458   0.75075   0.01267  Uiso   1.00
O4929  O     0.77404   0.16816   0.76816   0.01267  Uiso   1.00
O4930  O     0.69332   0.16758   0.77294   0.01267  Uiso   1.00
O4931  O     0.80883   0.07989   0.69411   0.01267  Uiso   1.00
O4932  O     0.80469   0.14523   0.69018   0.01267  Uiso   1.00
O4933  O     0.79863   0.21037   0.68786   0.01267  Uiso   1.00
O4934  O     0.73149   0.07837   0.70287   0.01267  Uiso   1.00
O4935  O     0.72786   0.14248   0.68859   0.01267  Uiso   1.00
O4936  O     0.73272   0.20847   0.68823   0.01267  Uiso   1.00
O4937  O     0.99795   0.11894   0.76138   0.01267  Uiso   1.00
O4938  O     0.99692   0.21399   0.75851   0.01267  Uiso   1.00
O4939  O     0.71014   0.17222   0.91013   0.01267  Uiso   1.00
O4940  O     0.73186   0.17503   0.96601   0.01267  Uiso   1.00
O4941  O     0.76604   0.16889   0.67335   0.01267  Uiso   1.00
O4942  O     0.80003   0.17665   0.96643   0.01267  Uiso   1.00
O4943  O     0.79579   0.16930   0.90200   0.01267  Uiso   1.00
O4944  O     0.75323   0.16195   0.91135   0.01267  Uiso   1.00
O4945  O     0.71080   0.05870   0.91688   0.01267  Uiso   1.00
O4946  O     0.73156   0.06342   0.97259   0.01267  Uiso   1.00
O4947  O     0.76900   0.06871   0.67152   0.01267  Uiso   1.00
O4948  O     0.80328   0.05774   0.96615   0.01267  Uiso   1.00
O4949  O     0.79583   0.06575   0.90228   0.01267  Uiso   1.00
O4950  O     0.75385   0.06938   0.91694   0.01267  Uiso   1.00
O4951  O     0.72636   0.11694   0.93560   0.01267  Uiso   1.00
O4952  O     0.80561   0.11756   0.94015   0.01267  Uiso   1.00
O4953  O     0.69141   0.20544   0.86127   0.01267  Uiso   1.00
O4954  O     0.69519   0.14006   0.85699   0.01267  Uiso   1.00
O4955  O     0.70088   0.07477   0.85511   0.01267  Uiso   1.00
O4956  O     0.76852   0.20711   0.86930   0.01267  Uiso   1.00
O4957  O     0.77146   0.14296   0.85502   0.01267  Uiso   1.00
O4958  O     0.76704   0.07696   0.85469   0.01267  Uiso   1.00
O4959  O     0.83474   0.16553   0.92811   0.01267  Uiso   1.00
O4960  O     0.83583   0.07232   0.92507   0.01267  Uiso   1.00
O4961  O     0.81037   0.26833   0.71090   0.01267  Uiso   1.00
O4962  O     0.73160   0.26690   0.71640   0.01267  Uiso   1.00
O4963  O     0.75863   0.26700   0.85007   0.01267  Uiso   1.00
O4964  O     0.70374   0.26709   0.84939   0.01267  Uiso   1.00
O4965  O     0.68999   0.01637   0.87877   0.01267  Uiso   1.00
O4966  O     0.76885   0.01819   0.88179   0.01267  Uiso   1.00
O4967  O     0.74198   0.01822   0.68425   0.01267  Uiso   1.00
O4968  O     0.79629   0.01819   0.68325   0.01267  Uiso   1.00
O4969  O     0.85478   0.01866   0.95048   0.01267  Uiso   1.00
O4970  O     0.93376   0.01762   0.94449   0.01267  Uiso   1.00
O4971  O     0.90793   0.01665   0.80958   0.01267  Uiso   1.00
O4972  O     0.96257   0.01699   0.81064   0.01267  Uiso   1.00
O4973  O     0.97657   0.26730   0.78227   0.01267  Uiso   1.00
O4974  O     0.89943   0.26711   0.77529   0.01267  Uiso   1.00
O4975  O     0.92478   0.26682   0.97658   0.01267  Uiso   1.00
O4976  O     0.87021   0.26789   0.97785   0.01267  Uiso   1.00
Si4977 Si    0.80731   0.92119   0.71603   0.01267  Uiso   1.00
Si4978 Si    0.76835   0.90689   0.76486   0.01267  Uiso   1.00
Si4979 Si    0.75989   0.92554   0.83811   0.01267  Uiso   1.00
Si4980 Si    0.70725   0.92431   0.83779   0.01267  Uiso   1.00
Si4981 Si    0.69098   0.90704   0.76626   0.01267  Uiso   1.00
Si4982 Si    0.72765   0.92090   0.71654   0.01267  Uiso   1.00
Si4983 Si    0.80782   0.80725   0.72003   0.01267  Uiso   1.00
Si4984 Si    0.76841   0.82772   0.76768   0.01267  Uiso   1.00
Si4985 Si    0.75679   0.80554   0.83889   0.01267  Uiso   1.00
Si4986 Si    0.70563   0.80593   0.83920   0.01267  Uiso   1.00
Si4987 Si    0.68827   0.82789   0.76863   0.01267  Uiso   1.00
Si4988 Si    0.72704   0.80574   0.72430   0.01267  Uiso   1.00
Si4989 Si    0.69177   0.86423   0.88384   0.01267  Uiso   1.00
Si4990 Si    0.73081   0.87849   0.93274   0.01267  Uiso   1.00
Si4991 Si    0.73853   0.85933   0.67259   0.01267  Uiso   1.00
Si4992 Si    0.79078   0.86049   0.67182   0.01267  Uiso   1.00
Si4993 Si    0.80673   0.87867   0.93436   0.01267  Uiso   1.00
Si4994 Si    0.77101   0.86419   0.88303   0.01267  Uiso   1.00
Si4995 Si    0.69174   0.97730   0.88779   0.01267  Uiso   1.00
Si4996 Si    0.73184   0.95772   0.93513   0.01267  Uiso   1.00
Si4997 Si    0.74347   0.97974   0.67285   0.01267  Uiso   1.00
Si4998 Si    0.79450   0.97979   0.67150   0.01267  Uiso   1.00
Si4999 Si    0.81124   0.95789   0.93436   0.01267  Uiso   1.00
Si5000 Si    0.77249   0.97916   0.88968   0.01267  Uiso   1.00
Si5001 Si    0.85852   0.67124   0.94478   0.01267  Uiso   1.00
Si5002 Si    0.89749   0.65602   0.89553   0.01267  Uiso   1.00
Si5003 Si    0.90607   0.67512   0.82275   0.01267  Uiso   1.00
Si5004 Si    0.95877   0.67459   0.82304   0.01267  Uiso   1.00
Si5005 Si    0.97546   0.65628   0.89387   0.01267  Uiso   1.00
Si5006 Si    0.93834   0.66942   0.94357   0.01267  Uiso   1.00
Si5007 Si    0.85836   0.55729   0.94051   0.01267  Uiso   1.00
Si5008 Si    0.89754   0.57722   0.89231   0.01267  Uiso   1.00
Si5009 Si    0.90959   0.55516   0.82089   0.01267  Uiso   1.00
Si5010 Si    0.96064   0.55508   0.82313   0.01267  Uiso   1.00
Si5011 Si    0.97729   0.57696   0.89352   0.01267  Uiso   1.00
Si5012 Si    0.93806   0.55663   0.93756   0.01267  Uiso   1.00
Si5013 Si    0.97426   0.61333   0.77850   0.01267  Uiso   1.00
Si5014 Si    0.93527   0.62750   0.72978   0.01267  Uiso   1.00
Si5015 Si    0.92649   0.60990   0.98989   0.01267  Uiso   1.00
Si5016 Si    0.87380   0.61092   0.99038   0.01267  Uiso   1.00
Si5017 Si    0.85722   0.62818   0.72809   0.01267  Uiso   1.00
Si5018 Si    0.89421   0.61448   0.77761   0.01267  Uiso   1.00
Si5019 Si    0.97401   0.72839   0.77327   0.01267  Uiso   1.00
Si5020 Si    0.93530   0.70635   0.72550   0.01267  Uiso   1.00
Si5021 Si    0.92309   0.72814   0.98715   0.01267  Uiso   1.00
Si5022 Si    0.87200   0.72920   0.98928   0.01267  Uiso   1.00
Si5023 Si    0.85519   0.70739   0.72666   0.01267  Uiso   1.00
Si5024 Si    0.89466   0.72794   0.76984   0.01267  Uiso   1.00
Si5025 Si    0.85647   0.86263   0.94610   0.01267  Uiso   1.00
Si5026 Si    0.90619   0.86101   0.82032   0.01267  Uiso   1.00
Si5027 Si    0.95832   0.86063   0.82262   0.01267  Uiso   1.00
Si5028 Si    0.97471   0.87844   0.89322   0.01267  Uiso   1.00
Si5029 Si    0.93860   0.86452   0.94408   0.01267  Uiso   1.00
Si5030 Si    0.85965   0.98070   0.93920   0.01267  Uiso   1.00
Si5031 Si    0.89594   0.95916   0.89182   0.01267  Uiso   1.00
Si5032 Si    0.90962   0.97759   0.81958   0.01267  Uiso   1.00
Si5033 Si    0.96069   0.97888   0.82342   0.01267  Uiso   1.00
Si5034 Si    0.97662   0.95751   0.89396   0.01267  Uiso   1.00
Si5035 Si    0.93689   0.97842   0.93647   0.01267  Uiso   1.00
Si5036 Si    0.97514   0.92051   0.77895   0.01267  Uiso   1.00
Si5037 Si    0.93657   0.90671   0.72829   0.01267  Uiso   1.00
Si5038 Si    0.92742   0.92403   0.99006   0.01267  Uiso   1.00
Si5039 Si    0.87499   0.92479   0.98738   0.01267  Uiso   1.00
Si5040 Si    0.85672   0.90644   0.72462   0.01267  Uiso   1.00
Si5041 Si    0.89443   0.92013   0.77307   0.01267  Uiso   1.00
Si5042 Si    0.97319   0.80632   0.77410   0.01267  Uiso   1.00
Si5043 Si    0.93539   0.82776   0.72484   0.01267  Uiso   1.00
Si5044 Si    0.92384   0.80566   0.98703   0.01267  Uiso   1.00
Si5045 Si    0.87286   0.80555   0.99155   0.01267  Uiso   1.00
Si5046 Si    0.85636   0.82750   0.72809   0.01267  Uiso   1.00
Si5047 Si    0.89555   0.80657   0.76991   0.01267  Uiso   1.00
Si5048 Si    0.80824   0.61413   0.71514   0.01267  Uiso   1.00
Si5049 Si    0.76923   0.62878   0.76367   0.01267  Uiso   1.00
Si5050 Si    0.75989   0.61147   0.83713   0.01267  Uiso   1.00
Si5051 Si    0.70728   0.60984   0.83793   0.01267  Uiso   1.00
Si5052 Si    0.69017   0.62786   0.76760   0.01267  Uiso   1.00
Si5053 Si    0.72749   0.61511   0.71797   0.01267  Uiso   1.00
Si5054 Si    0.80680   0.72972   0.72068   0.01267  Uiso   1.00
Si5055 Si    0.76895   0.70766   0.76820   0.01267  Uiso   1.00
Si5056 Si    0.75658   0.72806   0.84042   0.01267  Uiso   1.00
Si5057 Si    0.70557   0.72898   0.83691   0.01267  Uiso   1.00
Si5058 Si    0.68919   0.70688   0.76672   0.01267  Uiso   1.00
Si5059 Si    0.72837   0.72748   0.72282   0.01267  Uiso   1.00
Si5060 Si    0.69133   0.67092   0.88199   0.01267  Uiso   1.00
Si5061 Si    0.73034   0.65642   0.93071   0.01267  Uiso   1.00
Si5062 Si    0.73967   0.67379   0.67073   0.01267  Uiso   1.00
Si5063 Si    0.79222   0.67511   0.67113   0.01267  Uiso   1.00
Si5064 Si    0.80911   0.65708   0.93426   0.01267  Uiso   1.00
Si5065 Si    0.77201   0.67019   0.88442   0.01267  Uiso   1.00
Si5066 Si    0.69270   0.55522   0.88797   0.01267  Uiso   1.00
Si5067 Si    0.73079   0.57725   0.93529   0.01267  Uiso   1.00
Si5068 Si    0.74348   0.55712   0.67426   0.01267  Uiso   1.00
Si5069 Si    0.79436   0.55621   0.67036   0.01267  Uiso   1.00
Si5070 Si    0.81015   0.57843   0.93344   0.01267  Uiso   1.00
Si5071 Si    0.77131   0.55753   0.88908   0.01267  Uiso   1.00
Al5072 Al    0.89696   0.87991   0.89509   0.01267  Uiso   1.00
O5073  O     0.78935   0.92143   0.74529   0.01267  Uiso   1.00
O5074  O     0.76635   0.92660   0.79949   0.01267  Uiso   1.00
O5075  O     0.73354   0.92470   0.84297   0.01267  Uiso   1.00
O5076  O     0.70120   0.92384   0.79914   0.01267  Uiso   1.00
O5077  O     0.70395   0.92097   0.73434   0.01267  Uiso   1.00
O5078  O     0.74635   0.91265   0.74357   0.01267  Uiso   1.00
O5079  O     0.78853   0.81232   0.74683   0.01267  Uiso   1.00
O5080  O     0.76890   0.81040   0.80368   0.01267  Uiso   1.00
O5081  O     0.73128   0.81678   0.83560   0.01267  Uiso   1.00
O5082  O     0.69339   0.81212   0.80450   0.01267  Uiso   1.00
O5083  O     0.70292   0.80949   0.74067   0.01267  Uiso   1.00
O5084  O     0.74520   0.81989   0.74995   0.01267  Uiso   1.00
O5085  O     0.77155   0.86745   0.77161   0.01267  Uiso   1.00
O5086  O     0.69404   0.86710   0.76886   0.01267  Uiso   1.00
O5087  O     0.80768   0.95708   0.69782   0.01267  Uiso   1.00
O5088  O     0.80169   0.89291   0.68875   0.01267  Uiso   1.00
O5089  O     0.80213   0.82703   0.68618   0.01267  Uiso   1.00
O5090  O     0.73143   0.95725   0.70045   0.01267  Uiso   1.00
O5091  O     0.72790   0.89288   0.68781   0.01267  Uiso   1.00
O5092  O     0.72826   0.82649   0.69003   0.01267  Uiso   1.00
O5093  O     0.99885   0.91696   0.76143   0.01267  Uiso   1.00
O5094  O     0.99591   0.82216   0.76016   0.01267  Uiso   1.00
O5095  O     0.70823   0.86781   0.91489   0.01267  Uiso   1.00
O5096  O     0.73326   0.85786   0.96689   0.01267  Uiso   1.00
O5097  O     0.76478   0.85982   0.67943   0.01267  Uiso   1.00
O5098  O     0.79487   0.86169   0.96584   0.01267  Uiso   1.00
O5099  O     0.79462   0.86629   0.90125   0.01267  Uiso   1.00
O5100  O     0.75153   0.86995   0.90938   0.01267  Uiso   1.00
O5101  O     0.71110   0.97099   0.91430   0.01267  Uiso   1.00
O5102  O     0.73156   0.97570   0.97076   0.01267  Uiso   1.00
O5103  O     0.76898   0.96804   0.66996   0.01267  Uiso   1.00
O5104  O     0.80522   0.97628   0.96859   0.01267  Uiso   1.00
O5105  O     0.79695   0.97348   0.90444   0.01267  Uiso   1.00
O5106  O     0.75463   0.96659   0.91653   0.01267  Uiso   1.00
O5107  O     0.73046   0.91792   0.94047   0.01267  Uiso   1.00
O5108  O     0.80568   0.91861   0.93790   0.01267  Uiso   1.00
O5109  O     0.69422   0.82739   0.86810   0.01267  Uiso   1.00
O5110  O     0.69727   0.89154   0.85555   0.01267  Uiso   1.00
O5111  O     0.69692   0.95768   0.85376   0.01267  Uiso   1.00
O5112  O     0.76891   0.82757   0.86677   0.01267  Uiso   1.00
O5113  O     0.77020   0.89220   0.85440   0.01267  Uiso   1.00
O5114  O     0.76978   0.95849   0.85563   0.01267  Uiso   1.00
O5115  O     0.83208   0.86661   0.93202   0.01267  Uiso   1.00
O5116  O     0.83707   0.96316   0.92661   0.01267  Uiso   1.00
O5117  O     0.87693   0.67053   0.91620   0.01267  Uiso   1.00
O5118  O     0.89927   0.67668   0.86130   0.01267  Uiso   1.00
O5119  O     0.93245   0.67257   0.81865   0.01267  Uiso   1.00
O5120  O     0.96536   0.67439   0.86155   0.01267  Uiso   1.00
O5121  O     0.96224   0.66848   0.92626   0.01267  Uiso   1.00
O5122  O     0.91987   0.66069   0.91632   0.01267  Uiso   1.00
O5123  O     0.87765   0.56143   0.91347   0.01267  Uiso   1.00
O5124  O     0.89778   0.55981   0.85641   0.01267  Uiso   1.00
O5125  O     0.93511   0.56689   0.82360   0.01267  Uiso   1.00
O5126  O     0.97064   0.55793   0.85988   0.01267  Uiso   1.00
O5127  O     0.96280   0.56251   0.92383   0.01267  Uiso   1.00
O5128  O     0.92084   0.57087   0.91047   0.01267  Uiso   1.00
O5129  O     0.89375   0.61690   0.88800   0.01267  Uiso   1.00
O5130  O     0.97299   0.61645   0.88917   0.01267  Uiso   1.00
O5131  O     0.85860   0.70749   0.96245   0.01267  Uiso   1.00
O5132  O     0.86285   0.64300   0.97256   0.01267  Uiso   1.00
O5133  O     0.86460   0.57705   0.97402   0.01267  Uiso   1.00
O5134  O     0.93455   0.70630   0.95852   0.01267  Uiso   1.00
O5135  O     0.93765   0.64246   0.97327   0.01267  Uiso   1.00
O5136  O     0.93501   0.57627   0.97213   0.01267  Uiso   1.00
O5137  O     0.66757   0.66664   0.89923   0.01267  Uiso   1.00
O5138  O     0.66968   0.57036   0.90129   0.01267  Uiso   1.00
O5139  O     0.95570   0.61223   0.75011   0.01267  Uiso   1.00
O5140  O     0.93337   0.60810   0.69497   0.01267  Uiso   1.00
O5141  O     0.90011   0.61299   0.98591   0.01267  Uiso   1.00
O5142  O     0.86722   0.61042   0.69555   0.01267  Uiso   1.00
O5143  O     0.87031   0.61539   0.76030   0.01267  Uiso   1.00
O5144  O     0.91274   0.62250   0.75015   0.01267  Uiso   1.00
O5145  O     0.95495   0.72361   0.74595   0.01267  Uiso   1.00
O5146  O     0.93513   0.72215   0.68885   0.01267  Uiso   1.00
O5147  O     0.89741   0.71723   0.99043   0.01267  Uiso   1.00
O5148  O     0.86123   0.72536   0.69208   0.01267  Uiso   1.00
O5149  O     0.86983   0.72310   0.75614   0.01267  Uiso   1.00
O5150  O     0.91177   0.71293   0.74306   0.01267  Uiso   1.00
O5151  O     0.93947   0.66672   0.72327   0.01267  Uiso   1.00
O5152  O     0.86003   0.66802   0.72375   0.01267  Uiso   1.00
O5153  O     0.97452   0.57820   0.79801   0.01267  Uiso   1.00
O5154  O     0.96977   0.64304   0.80463   0.01267  Uiso   1.00
O5155  O     0.96782   0.70885   0.80701   0.01267  Uiso   1.00
O5156  O     0.89759   0.57786   0.79332   0.01267  Uiso   1.00
O5157  O     0.89503   0.64239   0.80642   0.01267  Uiso   1.00
O5158  O     0.89734   0.70873   0.80480   0.01267  Uiso   1.00
O5159  O     0.83165   0.61850   0.73333   0.01267  Uiso   1.00
O5160  O     0.82947   0.71387   0.73464   0.01267  Uiso   1.00
O5161  O     0.87293   0.85663   0.91314   0.01267  Uiso   1.00
O5162  O     0.89837   0.86067   0.85763   0.01267  Uiso   1.00
O5163  O     0.93253   0.86732   0.81606   0.01267  Uiso   1.00
O5164  O     0.96393   0.86023   0.86146   0.01267  Uiso   1.00
O5165  O     0.96243   0.86596   0.92612   0.01267  Uiso   1.00
O5166  O     0.91886   0.87173   0.91963   0.01267  Uiso   1.00
O5167  O     0.87736   0.98202   0.90968   0.01267  Uiso   1.00
O5168  O     0.89674   0.97089   0.85361   0.01267  Uiso   1.00
O5169  O     0.93524   0.96688   0.82371   0.01267  Uiso   1.00
O5170  O     0.97076   0.97710   0.86021   0.01267  Uiso   1.00
O5171  O     0.96177   0.97177   0.92383   0.01267  Uiso   1.00
O5172  O     0.91988   0.96707   0.90804   0.01267  Uiso   1.00
O5173  O     0.88946   0.92088   0.89557   0.01267  Uiso   1.00
O5174  O     0.97207   0.91830   0.88847   0.01267  Uiso   1.00
O5175  O     0.85790   0.82962   0.96848   0.01267  Uiso   1.00
O5176  O     0.86521   0.89522   0.96412   0.01267  Uiso   1.00
O5177  O     0.86934   0.96026   0.97063   0.01267  Uiso   1.00
O5178  O     0.93648   0.82731   0.95973   0.01267  Uiso   1.00
O5179  O     0.93892   0.89181   0.97379   0.01267  Uiso   1.00
O5180  O     0.93289   0.95802   0.97035   0.01267  Uiso   1.00
O5181  O     0.66705   0.86897   0.89692   0.01267  Uiso   1.00
O5182  O     0.66883   0.96397   0.90337   0.01267  Uiso   1.00
O5183  O     0.95631   0.92036   0.75105   0.01267  Uiso   1.00
O5184  O     0.93675   0.92736   0.69399   0.01267  Uiso   1.00
O5185  O     0.90096   0.91887   0.99107   0.01267  Uiso   1.00
O5186  O     0.86324   0.92326   0.68964   0.01267  Uiso   1.00
O5187  O     0.87095   0.92216   0.75431   0.01267  Uiso   1.00
O5188  O     0.91321   0.91257   0.74599   0.01267  Uiso   1.00
O5189  O     0.95453   0.81051   0.74623   0.01267  Uiso   1.00
O5190  O     0.93556   0.81028   0.68910   0.01267  Uiso   1.00
O5191  O     0.89819   0.81756   0.98953   0.01267  Uiso   1.00
O5192  O     0.86377   0.80701   0.69549   0.01267  Uiso   1.00
O5193  O     0.87022   0.81355   0.75923   0.01267  Uiso   1.00
O5194  O     0.91151   0.82127   0.74145   0.01267  Uiso   1.00
O5195  O     0.93981   0.86725   0.72145   0.01267  Uiso   1.00
O5196  O     0.86100   0.86664   0.72205   0.01267  Uiso   1.00
O5197  O     0.97459   0.95545   0.79873   0.01267  Uiso   1.00
O5198  O     0.97225   0.88988   0.80465   0.01267  Uiso   1.00
O5199  O     0.96565   0.82484   0.80772   0.01267  Uiso   1.00
O5200  O     0.89871   0.95578   0.79040   0.01267  Uiso   1.00
O5201  O     0.89365   0.89021   0.79977   0.01267  Uiso   1.00
O5202  O     0.90022   0.82472   0.80463   0.01267  Uiso   1.00
O5203  O     0.83107   0.91377   0.73207   0.01267  Uiso   1.00
O5204  O     0.83056   0.82127   0.73556   0.01267  Uiso   1.00
O5205  O     0.78892   0.61226   0.74251   0.01267  Uiso   1.00
O5206  O     0.76793   0.61046   0.79915   0.01267  Uiso   1.00
O5207  O     0.73352   0.61589   0.83959   0.01267  Uiso   1.00
O5208  O     0.69924   0.60870   0.80003   0.01267  Uiso   1.00
O5209  O     0.70366   0.61560   0.73549   0.01267  Uiso   1.00
O5210  O     0.74604   0.62402   0.74506   0.01267  Uiso   1.00
O5211  O     0.78836   0.72726   0.74924   0.01267  Uiso   1.00
O5212  O     0.76858   0.72138   0.80554   0.01267  Uiso   1.00
O5213  O     0.73104   0.71682   0.83767   0.01267  Uiso   1.00
O5214  O     0.69633   0.72703   0.79960   0.01267  Uiso   1.00
O5215  O     0.70368   0.71971   0.73565   0.01267  Uiso   1.00
O5216  O     0.74548   0.71458   0.75075   0.01267  Uiso   1.00
O5217  O     0.77404   0.66816   0.76816   0.01267  Uiso   1.00
O5218  O     0.69332   0.66758   0.77294   0.01267  Uiso   1.00
O5219  O     0.80883   0.57989   0.69411   0.01267  Uiso   1.00
O5220  O     0.80469   0.64523   0.69018   0.01267  Uiso   1.00
O5221  O     0.79863   0.71037   0.68786   0.01267  Uiso   1.00
O5222  O     0.73149   0.57837   0.70287   0.01267  Uiso   1.00
O5223  O     0.72786   0.64248   0.68859   0.01267  Uiso   1.00
O5224  O     0.73272   0.70847   0.68823   0.01267  Uiso   1.00
O5225  O     0.99795   0.61894   0.76138   0.01267  Uiso   1.00
O5226  O     0.99692   0.71399   0.75851   0.01267  Uiso   1.00
O5227  O     0.71014   0.67222   0.91013   0.01267  Uiso   1.00
O5228  O     0.73186   0.67503   0.96601   0.01267  Uiso   1.00
O5229  O     0.76604   0.66889   0.67335   0.01267  Uiso   1.00
O5230  O     0.80003   0.67665   0.96643   0.01267  Uiso   1.00
O5231  O     0.79579   0.66930   0.90200   0.01267  Uiso   1.00
O5232  O     0.75323   0.66195   0.91135   0.01267  Uiso   1.00
O5233  O     0.71080   0.55870   0.91688   0.01267  Uiso   1.00
O5234  O     0.73156   0.56342   0.97259   0.01267  Uiso   1.00
O5235  O     0.76900   0.56871   0.67152   0.01267  Uiso   1.00
O5236  O     0.80328   0.55774   0.96615   0.01267  Uiso   1.00
O5237  O     0.79583   0.56575   0.90228   0.01267  Uiso   1.00
O5238  O     0.75385   0.56938   0.91694   0.01267  Uiso   1.00
O5239  O     0.72636   0.61694   0.93560   0.01267  Uiso   1.00
O5240  O     0.80561   0.61756   0.94015   0.01267  Uiso   1.00
O5241  O     0.69141   0.70544   0.86127   0.01267  Uiso   1.00
O5242  O     0.69519   0.64006   0.85699   0.01267  Uiso   1.00
O5243  O     0.70088   0.57477   0.85511   0.01267  Uiso   1.00
O5244  O     0.76852   0.70711   0.86930   0.01267  Uiso   1.00
O5245  O     0.77146   0.64296   0.85502   0.01267  Uiso   1.00
O5246  O     0.76704   0.57696   0.85469   0.01267  Uiso   1.00
O5247  O     0.83474   0.66553   0.92811   0.01267  Uiso   1.00
O5248  O     0.83583   0.57232   0.92507   0.01267  Uiso   1.00
O5249  O     0.81037   0.76833   0.71090   0.01267  Uiso   1.00
O5250  O     0.73160   0.76690   0.71640   0.01267  Uiso   1.00
O5251  O     0.75863   0.76700   0.85007   0.01267  Uiso   1.00
O5252  O     0.70374   0.76709   0.84939   0.01267  Uiso   1.00
O5253  O     0.68999   0.51637   0.87877   0.01267  Uiso   1.00
O5254  O     0.76885   0.51819   0.88179   0.01267  Uiso   1.00
O5255  O     0.74198   0.51822   0.68425   0.01267  Uiso   1.00
O5256  O     0.79629   0.51819   0.68325   0.01267  Uiso   1.00
O5257  O     0.85478   0.51866   0.95048   0.01267  Uiso   1.00
O5258  O     0.93376   0.51762   0.94449   0.01267  Uiso   1.00
O5259  O     0.90793   0.51665   0.80958   0.01267  Uiso   1.00
O5260  O     0.96257   0.51699   0.81064   0.01267  Uiso   1.00
O5261  O     0.97657   0.76730   0.78227   0.01267  Uiso   1.00
O5262  O     0.89943   0.76711   0.77529   0.01267  Uiso   1.00
O5263  O     0.92478   0.76682   0.97658   0.01267  Uiso   1.00
O5264  O     0.87021   0.76789   0.97785   0.01267  Uiso   1.00
H5265  H     0.87029   0.83470   0.90199   0.01267  Uiso   1.00
H5266  H     0.80601   0.77145   0.88326   0.01267  Uiso   1.00
H5267  H     0.83725   0.76659   0.92831   0.01267  Uiso   1.00
H5268  H     0.82210   0.79076   0.82594   0.01267  Uiso   1.00
H5269  H     0.86504   0.80035   0.82941   0.01267  Uiso   1.00
C5270  C     0.83193   0.78716   0.84798   0.01267  Uiso   1.00
C5271  C     0.85409   0.79220   0.84881   0.01267  Uiso   1.00
C5272  C     0.82325   0.77679   0.87894   0.01267  Uiso   1.00
C5273  C     0.83894   0.77421   0.90283   0.01267  Uiso   1.00
S5274  S     0.86450   0.78357   0.88726   0.01267  Uiso   1.00
loop_
_geom_bond_atom_site_label_1
_geom_bond_atom_site_label_2
_geom_bond_distance
_geom_bond_site_symmetry_2
_ccdc_geom_bond_type
Si1    O97     1.621   .     S
Si1    O111    1.626   .     S
Si1    O112    1.629   .     S
Si1    O227    1.621   .     S
Si2    O97     1.621   .     S
Si2    O98     1.623   .     S
Si2    O102    1.617   .     S
Si2    O109    1.626   .     S
Si3    O98     1.622   .     S
Si3    O99     1.623   .     S
Si3    O137    1.627   .     S
Si3    O138    1.625   .     S
Si4    O99     1.622   .     S
Si4    O100    1.617   .     S
Si4    O134    1.626   .     S
Si4    O135    1.623   .     S
Si5    O100    1.626   .     S
Si5    O101    1.623   .     S
Si5    O110    1.625   .     S
Si5    O1289   1.620   1_455 S
Si6    O101    1.620   .     S
Si6    O102    1.622   .     S
Si6    O114    1.622   .     S
Si6    O115    1.627   .     S
Si7    O103    1.620   .     S
Si7    O113    1.630   .     S
Si7    O228    1.629   .     S
Si7    O273    1.621   .     S
Si8    O103    1.619   .     S
Si8    O104    1.624   .     S
Si8    O108    1.623   .     S
Si8    O109    1.622   .     S
Si9    O104    1.626   .     S
Si9    O105    1.629   .     S
Si9    O136    1.621   .     S
Si9    O275    1.624   .     S
Si10   O105    1.635   .     S
Si10   O106    1.618   .     S
Si10   O133    1.619   .     S
Si10   O276    1.625   .     S
Si11   O106    1.624   .     S
Si11   O107    1.628   .     S
Si11   O110    1.620   .     S
Si11   O1290   1.625   1_455 S
Si12   O107    1.626   .     S
Si12   O108    1.628   .     S
Si12   O116    1.629   .     S
Si12   O274    1.623   .     S
Si13   O119    1.623   .     S
Si13   O133    1.625   .     S
Si13   O134    1.629   .     S
Si13   O205    1.614   .     S
Si14   O119    1.618   .     S
Si14   O120    1.628   .     S
Si14   O124    1.622   .     S
Si14   O131    1.621   .     S
Si15   O115    1.624   .     S
Si15   O116    1.629   .     S
Si15   O121    1.629   .     S
Si15   O3636   1.623   1_554 S
Si16   O112    1.622   .     S
Si16   O113    1.626   .     S
Si16   O121    1.620   .     S
Si16   O3638   1.621   1_554 S
Si17   O122    1.624   .     S
Si17   O123    1.618   .     S
Si17   O132    1.618   .     S
Si17   O139    1.627   .     S
Si18   O123    1.625   .     S
Si18   O124    1.620   .     S
Si18   O136    1.624   .     S
Si18   O137    1.624   .     S
Si19   O125    1.622   .     S
Si19   O135    1.627   .     S
Si19   O206    1.629   .     S
Si19   O565    1.622   .     S
Si20   O125    1.617   .     S
Si20   O126    1.622   .     S
Si20   O130    1.626   .     S
Si20   O131    1.622   .     S
Si21   O114    1.621   .     S
Si21   O127    1.634   .     S
Si21   O567    1.622   .     S
Si21   O3642   1.624   1_554 S
Si22   O111    1.624   .     S
Si22   O127    1.632   .     S
Si22   O568    1.625   .     S
Si22   O3644   1.621   1_554 S
Si23   O128    1.621   .     S
Si23   O129    1.626   .     S
Si23   O132    1.627   .     S
Si23   O140    1.624   .     S
Si24   O129    1.628   .     S
Si24   O130    1.626   .     S
Si24   O138    1.626   .     S
Si24   O566    1.622   .     S
Si25   O141    1.619   .     S
Si25   O155    1.630   .     S
Si25   O156    1.627   .     S
Si25   O271    1.621   .     S
Si26   O141    1.622   .     S
Si26   O142    1.628   .     S
Si26   O146    1.620   .     S
Si26   O153    1.623   .     S
Si27   O142    1.625   .     S
Si27   O143    1.625   .     S
Si27   O181    1.625   .     S
Si27   O182    1.630   .     S
Si28   O143    1.621   .     S
Si28   O144    1.619   .     S
Si28   O178    1.623   .     S
Si28   O179    1.625   .     S
Si29   O144    1.627   .     S
Si29   O145    1.623   .     S
Si29   O154    1.625   .     S
Si29   O747    1.626   .     S
Si30   O145    1.623   .     S
Si30   O146    1.622   .     S
Si30   O158    1.624   .     S
Si30   O159    1.627   .     S
Si31   O147    1.622   .     S
Si31   O157    1.626   .     S
Si31   O272    1.631   .     S
Si31   O281    1.625   .     S
Si32   O147    1.621   .     S
Si32   O148    1.622   .     S
Si32   O152    1.626   .     S
Si32   O153    1.626   .     S
Si33   O148    1.628   .     S
Si33   O149    1.634   .     S
Si33   O180    1.624   .     S
Si33   O283    1.623   .     S
Si34   O149    1.632   .     S
Si34   O150    1.621   .     S
Si34   O177    1.624   .     S
Si34   O284    1.623   .     S
Si35   O150    1.622   .     S
Si35   O151    1.628   .     S
Si35   O154    1.624   .     S
Si35   O748    1.626   .     S
Si36   O151    1.630   .     S
Si36   O152    1.629   .     S
Si36   O160    1.626   .     S
Si36   O282    1.620   .     S
Si37   O163    1.621   .     S
Si37   O177    1.624   .     S
Si37   O178    1.626   .     S
Si37   O249    1.623   .     S
Si38   O163    1.620   .     S
Si38   O164    1.623   .     S
Si38   O168    1.621   .     S
Si38   O175    1.624   .     S
Si39   O159    1.627   .     S
Si39   O160    1.623   .     S
Si39   O165    1.626   .     S
Si39   O1922   1.622   .     S
Si40   O156    1.628   .     S
Si40   O157    1.621   .     S
Si40   O165    1.621   .     S
Si40   O1924   1.619   .     S
Si41   O166    1.626   .     S
Si41   O167    1.621   .     S
Si41   O176    1.626   .     S
Si41   O183    1.625   .     S
Si42   O167    1.623   .     S
Si42   O168    1.624   .     S
Si42   O180    1.623   .     S
Si42   O181    1.627   .     S
Si43   O169    1.623   .     S
Si43   O179    1.629   .     S
Si43   O250    1.631   .     S
Si43   O285    1.619   .     S
Si44   O169    1.619   .     S
Si44   O170    1.623   .     S
Si44   O174    1.628   .     S
Si44   O175    1.621   .     S
Si45   O158    1.621   .     S
Si45   O171    1.636   .     S
Si45   O287    1.621   .     S
Si45   O1928   1.624   .     S
Si46   O155    1.622   .     S
Si46   O171    1.628   .     S
Si46   O288    1.632   .     S
Si46   O1930   1.620   .     S
Si47   O172    1.626   .     S
Si47   O173    1.626   .     S
Si47   O176    1.619   .     S
Si47   O184    1.627   .     S
Si48   O173    1.629   .     S
Si48   O174    1.628   .     S
Si48   O182    1.629   .     S
Si48   O286    1.622   .     S
Si49   O139    1.606   .     S
Si49   O185    1.695   .     S
Si49   O199    1.616   .     S
Si49   O200    1.598   .     S
Si50   O186    1.593   .     S
Si50   O187    1.640   .     S
Si50   O225    1.636   .     S
Si50   O226    1.638   .     S
Si51   O187    1.622   .     S
Si51   O188    1.618   .     S
Si51   O222    1.629   .     S
Si51   O223    1.629   .     S
Si52   O188    1.627   .     S
Si52   O189    1.616   .     S
Si52   O198    1.627   .     S
Si52   O791    1.623   .     S
Si53   O189    1.631   .     S
Si53   O190    1.592   .     S
Si53   O202    1.635   .     S
Si53   O203    1.636   .     S
Si54   O140    1.634   .     S
Si54   O191    1.619   .     S
Si54   O201    1.634   .     S
Si54   O569    1.626   .     S
Si55   O191    1.634   .     S
Si55   O192    1.627   .     S
Si55   O196    1.638   .     S
Si55   O197    1.601   .     S
Si56   O192    1.617   .     S
Si56   O193    1.634   .     S
Si56   O224    1.622   .     S
Si56   O571    1.630   .     S
Si57   O193    1.630   .     S
Si57   O194    1.621   .     S
Si57   O221    1.621   .     S
Si57   O572    1.627   .     S
Si58   O194    1.625   .     S
Si58   O195    1.623   .     S
Si58   O198    1.621   .     S
Si58   O792    1.630   .     S
Si59   O195    1.628   .     S
Si59   O196    1.622   .     S
Si59   O204    1.625   .     S
Si59   O570    1.626   .     S
Si60   O117    1.622   .     S
Si60   O207    1.618   .     S
Si60   O221    1.623   .     S
Si60   O222    1.629   .     S
Si61   O207    1.618   .     S
Si61   O208    1.626   .     S
Si61   O212    1.618   .     S
Si61   O219    1.628   .     S
Si62   O203    1.619   .     S
Si62   O204    1.623   .     S
Si62   O209    1.632   .     S
Si62   O1966   1.627   .     S
Si63   O200    1.636   .     S
Si63   O201    1.622   .     S
Si63   O209    1.613   .     S
Si63   O1968   1.619   .     S
Si64   O210    1.627   .     S
Si64   O211    1.619   .     S
Si64   O220    1.630   .     S
Si64   O227    1.625   .     S
Si65   O211    1.628   .     S
Si65   O212    1.621   .     S
Si65   O224    1.623   .     S
Si65   O225    1.625   .     S
Si66   O118    1.631   .     S
Si66   O213    1.618   .     S
Si66   O223    1.626   .     S
Si66   O285    1.622   .     S
Si67   O213    1.616   .     S
Si67   O214    1.617   .     S
Si67   O218    1.630   .     S
Si67   O219    1.621   .     S
Si68   O202    1.611   .     S
Si68   O215    1.643   .     S
Si68   O287    1.624   .     S
Si68   O1972   1.620   .     S
Si69   O199    1.632   .     S
Si69   O215    1.625   .     S
Si69   O288    1.626   .     S
Si69   O1974   1.618   .     S
Si70   O216    1.628   .     S
Si70   O217    1.625   .     S
Si70   O220    1.623   .     S
Si70   O228    1.627   .     S
Si71   O217    1.633   .     S
Si71   O218    1.627   .     S
Si71   O226    1.617   .     S
Si71   O286    1.624   .     S
Si72   O183    1.622   .     S
Si72   O229    1.626   .     S
Si72   O243    1.625   .     S
Si72   O244    1.629   .     S
Si73   O229    1.624   .     S
Si73   O230    1.625   .     S
Si73   O234    1.619   .     S
Si73   O241    1.625   .     S
Si74   O230    1.623   .     S
Si74   O231    1.626   .     S
Si74   O269    1.626   .     S
Si74   O270    1.625   .     S
Si75   O231    1.624   .     S
Si75   O232    1.620   .     S
Si75   O266    1.623   .     S
Si75   O267    1.626   .     S
Si76   O232    1.628   .     S
Si76   O233    1.623   .     S
Si76   O242    1.628   .     S
Si76   O1421   1.623   1_455 S
Si77   O233    1.622   .     S
Si77   O234    1.622   .     S
Si77   O246    1.623   .     S
Si77   O247    1.628   .     S
Si78   O184    1.629   .     S
Si78   O235    1.623   .     S
Si78   O245    1.626   .     S
Si78   O273    1.622   .     S
Si79   O235    1.621   .     S
Si79   O236    1.618   .     S
Si79   O240    1.625   .     S
Si79   O241    1.623   .     S
Si80   O236    1.622   .     S
Si80   O237    1.630   .     S
Si80   O268    1.621   .     S
Si80   O275    1.624   .     S
Si81   O237    1.633   .     S
Si81   O238    1.623   .     S
Si81   O265    1.623   .     S
Si81   O276    1.623   .     S
Si82   O238    1.626   .     S
Si82   O239    1.629   .     S
Si82   O242    1.625   .     S
Si82   O1422   1.626   1_455 S
Si83   O239    1.628   .     S
Si83   O240    1.630   .     S
Si83   O248    1.626   .     S
Si83   O274    1.623   .     S
Si84   O161    1.623   .     S
Si84   O251    1.625   .     S
Si84   O265    1.628   .     S
Si84   O266    1.625   .     S
Si85   O251    1.623   .     S
Si85   O252    1.624   .     S
Si85   O256    1.622   .     S
Si85   O263    1.623   .     S
Si86   O247    1.626   .     S
Si86   O248    1.626   .     S
Si86   O253    1.628   .     S
Si86   O3768   1.623   1_554 S
Si87   O244    1.623   .     S
Si87   O245    1.625   .     S
Si87   O253    1.623   .     S
Si87   O3770   1.622   1_554 S
Si88   O254    1.627   .     S
Si88   O255    1.622   .     S
Si88   O264    1.626   .     S
Si88   O271    1.623   .     S
Si89   O255    1.621   .     S
Si89   O256    1.622   .     S
Si89   O268    1.625   .     S
Si89   O269    1.625   .     S
Si90   O162    1.628   .     S
Si90   O257    1.622   .     S
Si90   O267    1.632   .     S
Si90   O277    1.620   .     S
Si91   O257    1.617   .     S
Si91   O258    1.619   .     S
Si91   O262    1.627   .     S
Si91   O263    1.623   .     S
Si92   O246    1.622   .     S
Si92   O259    1.632   .     S
Si92   O279    1.623   .     S
Si92   O3774   1.621   1_554 S
Si93   O243    1.622   .     S
Si93   O259    1.631   .     S
Si93   O280    1.625   .     S
Si93   O3776   1.625   1_554 S
Si94   O260    1.627   .     S
Si94   O261    1.624   .     S
Si94   O264    1.625   .     S
Si94   O272    1.625   .     S
Si95   O261    1.627   .     S
Si95   O262    1.629   .     S
Si95   O270    1.626   .     S
Si95   O278    1.621   .     S
Al96   O185    1.892   .     S
Al96   O186    1.714   .     S
Al96   O190    1.703   .     S
Al96   O197    1.715   .     S
O117   Si591   1.620   .     S
O118   Si597   1.625   .     S
O120   Si1773  1.623   .     S
O122   Si1774  1.621   .     S
O126   Si1779  1.624   .     S
O128   Si1780  1.621   .     S
O161   Si1201  1.626   1_455 S
O162   Si1207  1.626   1_455 S
O164   Si3555  1.622   1_554 S
O166   Si3556  1.619   1_554 S
O170   Si3561  1.624   1_554 S
O172   Si3562  1.620   1_554 S
O205   Si1224  1.623   1_455 S
O206   Si1230  1.630   1_455 S
O208   Si3578  1.627   1_554 S
O210   Si3579  1.619   1_554 S
O214   Si3584  1.620   1_554 S
O216   Si3585  1.618   1_554 S
O249   Si662   1.623   .     S
O250   Si668   1.626   .     S
O252   Si1844  1.623   .     S
O254   Si1845  1.622   .     S
O258   Si1850  1.621   .     S
O260   Si1851  1.625   .     S
O277   Si307   1.622   1_545 S
O278   Si312   1.622   1_545 S
O279   Si309   1.622   1_545 S
O280   Si310   1.625   1_545 S
O281   Si342   1.626   1_545 S
O282   Si347   1.626   1_545 S
O283   Si344   1.630   1_545 S
O284   Si345   1.627   1_545 S
Si289  O385    1.621   .     S
Si289  O399    1.626   .     S
Si289  O400    1.629   .     S
Si289  O515    1.621   .     S
Si290  O385    1.621   .     S
Si290  O386    1.623   .     S
Si290  O390    1.617   .     S
Si290  O397    1.626   .     S
Si291  O386    1.622   .     S
Si291  O387    1.623   .     S
Si291  O425    1.627   .     S
Si291  O426    1.625   .     S
Si292  O387    1.622   .     S
Si292  O388    1.617   .     S
Si292  O422    1.626   .     S
Si292  O423    1.623   .     S
Si293  O388    1.626   .     S
Si293  O389    1.623   .     S
Si293  O398    1.625   .     S
Si293  O1577   1.620   1_455 S
Si294  O389    1.620   .     S
Si294  O390    1.622   .     S
Si294  O402    1.622   .     S
Si294  O403    1.627   .     S
Si295  O391    1.620   .     S
Si295  O401    1.630   .     S
Si295  O516    1.629   .     S
Si295  O561    1.621   .     S
Si296  O391    1.619   .     S
Si296  O392    1.624   .     S
Si296  O396    1.623   .     S
Si296  O397    1.622   .     S
Si297  O392    1.626   .     S
Si297  O393    1.629   .     S
Si297  O424    1.621   .     S
Si297  O563    1.624   .     S
Si298  O393    1.635   .     S
Si298  O394    1.618   .     S
Si298  O421    1.619   .     S
Si298  O564    1.625   .     S
Si299  O394    1.624   .     S
Si299  O395    1.628   .     S
Si299  O398    1.620   .     S
Si299  O1578   1.625   1_455 S
Si300  O395    1.626   .     S
Si300  O396    1.628   .     S
Si300  O404    1.629   .     S
Si300  O562    1.623   .     S
Si301  O407    1.623   .     S
Si301  O421    1.625   .     S
Si301  O422    1.629   .     S
Si301  O493    1.614   .     S
Si302  O407    1.618   .     S
Si302  O408    1.628   .     S
Si302  O412    1.622   .     S
Si302  O419    1.621   .     S
Si303  O403    1.624   .     S
Si303  O404    1.629   .     S
Si303  O409    1.629   .     S
Si303  O3924   1.623   1_554 S
Si304  O400    1.622   .     S
Si304  O401    1.626   .     S
Si304  O409    1.620   .     S
Si304  O3926   1.621   1_554 S
Si305  O410    1.624   .     S
Si305  O411    1.618   .     S
Si305  O420    1.618   .     S
Si305  O427    1.627   .     S
Si306  O411    1.625   .     S
Si306  O412    1.620   .     S
Si306  O424    1.624   .     S
Si306  O425    1.624   .     S
Si307  O413    1.622   .     S
Si307  O423    1.627   .     S
Si307  O494    1.629   .     S
Si307  O277    1.622   1_565 S
Si308  O413    1.617   .     S
Si308  O414    1.622   .     S
Si308  O418    1.626   .     S
Si308  O419    1.622   .     S
Si309  O402    1.621   .     S
Si309  O415    1.634   .     S
Si309  O279    1.622   1_565 S
Si309  O3930   1.624   1_554 S
Si310  O399    1.624   .     S
Si310  O415    1.632   .     S
Si310  O280    1.625   1_565 S
Si310  O3932   1.621   1_554 S
Si311  O416    1.621   .     S
Si311  O417    1.626   .     S
Si311  O420    1.627   .     S
Si311  O428    1.624   .     S
Si312  O417    1.628   .     S
Si312  O418    1.626   .     S
Si312  O426    1.626   .     S
Si312  O278    1.622   1_565 S
Si313  O429    1.619   .     S
Si313  O443    1.630   .     S
Si313  O444    1.627   .     S
Si313  O559    1.621   .     S
Si314  O429    1.622   .     S
Si314  O430    1.628   .     S
Si314  O434    1.620   .     S
Si314  O441    1.623   .     S
Si315  O430    1.625   .     S
Si315  O431    1.625   .     S
Si315  O469    1.625   .     S
Si315  O470    1.630   .     S
Si316  O431    1.621   .     S
Si316  O432    1.619   .     S
Si316  O466    1.623   .     S
Si316  O467    1.625   .     S
Si317  O432    1.627   .     S
Si317  O433    1.623   .     S
Si317  O442    1.625   .     S
Si317  O1035   1.626   .     S
Si318  O433    1.623   .     S
Si318  O434    1.622   .     S
Si318  O446    1.624   .     S
Si318  O447    1.627   .     S
Si319  O435    1.622   .     S
Si319  O445    1.626   .     S
Si319  O560    1.631   .     S
Si319  O569    1.625   .     S
Si320  O435    1.621   .     S
Si320  O436    1.622   .     S
Si320  O440    1.626   .     S
Si320  O441    1.626   .     S
Si321  O436    1.628   .     S
Si321  O437    1.634   .     S
Si321  O468    1.624   .     S
Si321  O571    1.623   .     S
Si322  O437    1.632   .     S
Si322  O438    1.621   .     S
Si322  O465    1.624   .     S
Si322  O572    1.623   .     S
Si323  O438    1.622   .     S
Si323  O439    1.628   .     S
Si323  O442    1.624   .     S
Si323  O1036   1.626   .     S
Si324  O439    1.630   .     S
Si324  O440    1.629   .     S
Si324  O448    1.626   .     S
Si324  O570    1.620   .     S
Si325  O451    1.621   .     S
Si325  O465    1.624   .     S
Si325  O466    1.626   .     S
Si325  O537    1.623   .     S
Si326  O451    1.620   .     S
Si326  O452    1.623   .     S
Si326  O456    1.621   .     S
Si326  O463    1.624   .     S
Si327  O447    1.627   .     S
Si327  O448    1.623   .     S
Si327  O453    1.626   .     S
Si327  O2210   1.622   .     S
Si328  O444    1.628   .     S
Si328  O445    1.621   .     S
Si328  O453    1.621   .     S
Si328  O2212   1.619   .     S
Si329  O454    1.626   .     S
Si329  O455    1.621   .     S
Si329  O464    1.626   .     S
Si329  O471    1.625   .     S
Si330  O455    1.623   .     S
Si330  O456    1.624   .     S
Si330  O468    1.623   .     S
Si330  O469    1.627   .     S
Si331  O457    1.623   .     S
Si331  O467    1.629   .     S
Si331  O538    1.631   .     S
Si331  O573    1.619   .     S
Si332  O457    1.619   .     S
Si332  O458    1.623   .     S
Si332  O462    1.628   .     S
Si332  O463    1.621   .     S
Si333  O446    1.621   .     S
Si333  O459    1.636   .     S
Si333  O575    1.621   .     S
Si333  O2216   1.624   .     S
Si334  O443    1.622   .     S
Si334  O459    1.628   .     S
Si334  O576    1.632   .     S
Si334  O2218   1.620   .     S
Si335  O460    1.626   .     S
Si335  O461    1.626   .     S
Si335  O464    1.619   .     S
Si335  O472    1.627   .     S
Si336  O461    1.629   .     S
Si336  O462    1.628   .     S
Si336  O470    1.629   .     S
Si336  O574    1.622   .     S
Si337  O427    1.606   .     S
Si337  O473    1.695   .     S
Si337  O487    1.616   .     S
Si337  O488    1.598   .     S
Si338  O474    1.593   .     S
Si338  O475    1.640   .     S
Si338  O513    1.636   .     S
Si338  O514    1.638   .     S
Si339  O475    1.622   .     S
Si339  O476    1.618   .     S
Si339  O510    1.629   .     S
Si339  O511    1.629   .     S
Si340  O476    1.627   .     S
Si340  O477    1.616   .     S
Si340  O486    1.627   .     S
Si340  O1079   1.623   .     S
Si341  O477    1.631   .     S
Si341  O478    1.592   .     S
Si341  O490    1.635   .     S
Si341  O491    1.636   .     S
Si342  O428    1.634   .     S
Si342  O479    1.619   .     S
Si342  O489    1.634   .     S
Si342  O281    1.626   1_565 S
Si343  O479    1.634   .     S
Si343  O480    1.627   .     S
Si343  O484    1.638   .     S
Si343  O485    1.601   .     S
Si344  O480    1.617   .     S
Si344  O481    1.634   .     S
Si344  O512    1.622   .     S
Si344  O283    1.630   1_565 S
Si345  O481    1.630   .     S
Si345  O482    1.621   .     S
Si345  O509    1.621   .     S
Si345  O284    1.627   1_565 S
Si346  O482    1.625   .     S
Si346  O483    1.623   .     S
Si346  O486    1.621   .     S
Si346  O1080   1.630   .     S
Si347  O483    1.628   .     S
Si347  O484    1.622   .     S
Si347  O492    1.625   .     S
Si347  O282    1.626   1_565 S
Si348  O405    1.622   .     S
Si348  O495    1.618   .     S
Si348  O509    1.623   .     S
Si348  O510    1.629   .     S
Si349  O495    1.618   .     S
Si349  O496    1.626   .     S
Si349  O500    1.618   .     S
Si349  O507    1.628   .     S
Si350  O491    1.619   .     S
Si350  O492    1.623   .     S
Si350  O497    1.632   .     S
Si350  O2254   1.627   .     S
Si351  O488    1.636   .     S
Si351  O489    1.622   .     S
Si351  O497    1.613   .     S
Si351  O2256   1.619   .     S
Si352  O498    1.627   .     S
Si352  O499    1.619   .     S
Si352  O508    1.630   .     S
Si352  O515    1.625   .     S
Si353  O499    1.628   .     S
Si353  O500    1.621   .     S
Si353  O512    1.623   .     S
Si353  O513    1.625   .     S
Si354  O406    1.631   .     S
Si354  O501    1.618   .     S
Si354  O511    1.626   .     S
Si354  O573    1.622   .     S
Si355  O501    1.616   .     S
Si355  O502    1.617   .     S
Si355  O506    1.630   .     S
Si355  O507    1.621   .     S
Si356  O490    1.611   .     S
Si356  O503    1.643   .     S
Si356  O575    1.624   .     S
Si356  O2260   1.620   .     S
Si357  O487    1.632   .     S
Si357  O503    1.625   .     S
Si357  O576    1.626   .     S
Si357  O2262   1.618   .     S
Si358  O504    1.628   .     S
Si358  O505    1.625   .     S
Si358  O508    1.623   .     S
Si358  O516    1.627   .     S
Si359  O505    1.633   .     S
Si359  O506    1.627   .     S
Si359  O514    1.617   .     S
Si359  O574    1.624   .     S
Si360  O471    1.622   .     S
Si360  O517    1.626   .     S
Si360  O531    1.625   .     S
Si360  O532    1.629   .     S
Si361  O517    1.624   .     S
Si361  O518    1.625   .     S
Si361  O522    1.619   .     S
Si361  O529    1.625   .     S
Si362  O518    1.623   .     S
Si362  O519    1.626   .     S
Si362  O557    1.626   .     S
Si362  O558    1.625   .     S
Si363  O519    1.624   .     S
Si363  O520    1.620   .     S
Si363  O554    1.623   .     S
Si363  O555    1.626   .     S
Si364  O520    1.628   .     S
Si364  O521    1.623   .     S
Si364  O530    1.628   .     S
Si364  O1709   1.623   1_455 S
Si365  O521    1.622   .     S
Si365  O522    1.622   .     S
Si365  O534    1.623   .     S
Si365  O535    1.628   .     S
Si366  O472    1.629   .     S
Si366  O523    1.623   .     S
Si366  O533    1.626   .     S
Si366  O561    1.622   .     S
Si367  O523    1.621   .     S
Si367  O524    1.618   .     S
Si367  O528    1.625   .     S
Si367  O529    1.623   .     S
Si368  O524    1.622   .     S
Si368  O525    1.630   .     S
Si368  O556    1.621   .     S
Si368  O563    1.624   .     S
Si369  O525    1.633   .     S
Si369  O526    1.623   .     S
Si369  O553    1.623   .     S
Si369  O564    1.623   .     S
Si370  O526    1.626   .     S
Si370  O527    1.629   .     S
Si370  O530    1.625   .     S
Si370  O1710   1.626   1_455 S
Si371  O527    1.628   .     S
Si371  O528    1.630   .     S
Si371  O536    1.626   .     S
Si371  O562    1.623   .     S
Si372  O449    1.623   .     S
Si372  O539    1.625   .     S
Si372  O553    1.628   .     S
Si372  O554    1.625   .     S
Si373  O539    1.623   .     S
Si373  O540    1.624   .     S
Si373  O544    1.622   .     S
Si373  O551    1.623   .     S
Si374  O535    1.626   .     S
Si374  O536    1.626   .     S
Si374  O541    1.628   .     S
Si374  O4056   1.623   1_554 S
Si375  O532    1.623   .     S
Si375  O533    1.625   .     S
Si375  O541    1.623   .     S
Si375  O4058   1.622   1_554 S
Si376  O542    1.627   .     S
Si376  O543    1.622   .     S
Si376  O552    1.626   .     S
Si376  O559    1.623   .     S
Si377  O543    1.621   .     S
Si377  O544    1.622   .     S
Si377  O556    1.625   .     S
Si377  O557    1.625   .     S
Si378  O450    1.628   .     S
Si378  O545    1.622   .     S
Si378  O555    1.632   .     S
Si378  O565    1.620   .     S
Si379  O545    1.617   .     S
Si379  O546    1.619   .     S
Si379  O550    1.627   .     S
Si379  O551    1.623   .     S
Si380  O534    1.622   .     S
Si380  O547    1.632   .     S
Si380  O567    1.623   .     S
Si380  O4062   1.621   1_554 S
Si381  O531    1.622   .     S
Si381  O547    1.631   .     S
Si381  O568    1.625   .     S
Si381  O4064   1.625   1_554 S
Si382  O548    1.627   .     S
Si382  O549    1.624   .     S
Si382  O552    1.625   .     S
Si382  O560    1.625   .     S
Si383  O549    1.627   .     S
Si383  O550    1.629   .     S
Si383  O558    1.626   .     S
Si383  O566    1.621   .     S
Al384  O473    1.892   .     S
Al384  O474    1.714   .     S
Al384  O478    1.703   .     S
Al384  O485    1.715   .     S
O405   Si879   1.620   .     S
O406   Si885   1.625   .     S
O408   Si2061  1.623   .     S
O410   Si2062  1.621   .     S
O414   Si2067  1.624   .     S
O416   Si2068  1.621   .     S
O449   Si1489  1.626   1_455 S
O450   Si1495  1.626   1_455 S
O452   Si3843  1.622   1_554 S
O454   Si3844  1.619   1_554 S
O458   Si3849  1.624   1_554 S
O460   Si3850  1.620   1_554 S
O473   H577    1.007   .     S
O493   Si1512  1.623   1_455 S
O494   Si1518  1.630   1_455 S
O496   Si3866  1.627   1_554 S
O498   Si3867  1.619   1_554 S
O502   Si3872  1.620   1_554 S
O504   Si3873  1.618   1_554 S
O537   Si950   1.623   .     S
O538   Si956   1.626   .     S
O540   Si2132  1.623   .     S
O542   Si2133  1.622   .     S
O546   Si2138  1.621   .     S
O548   Si2139  1.625   .     S
H578   C584    1.090   .     S
H579   C585    1.087   .     S
H580   C582    1.090   .     S
H581   C583    1.086   .     S
C582   C583    1.370   .     D
C582   C584    1.431   .     S
C583   S586    1.726   .     S
C584   C585    1.370   .     D
C585   S586    1.729   .     S
Si587  O683    1.621   .     S
Si587  O697    1.626   .     S
Si587  O698    1.629   .     S
Si587  O813    1.621   .     S
Si588  O683    1.621   .     S
Si588  O684    1.623   .     S
Si588  O688    1.617   .     S
Si588  O695    1.626   .     S
Si589  O684    1.622   .     S
Si589  O685    1.623   .     S
Si589  O723    1.627   .     S
Si589  O724    1.625   .     S
Si590  O685    1.622   .     S
Si590  O686    1.617   .     S
Si590  O720    1.626   .     S
Si590  O721    1.623   .     S
Si591  O686    1.626   .     S
Si591  O687    1.623   .     S
Si591  O696    1.625   .     S
Si592  O687    1.620   .     S
Si592  O688    1.622   .     S
Si592  O700    1.622   .     S
Si592  O701    1.627   .     S
Si593  O689    1.620   .     S
Si593  O699    1.630   .     S
Si593  O814    1.629   .     S
Si593  O859    1.621   .     S
Si594  O689    1.619   .     S
Si594  O690    1.624   .     S
Si594  O694    1.623   .     S
Si594  O695    1.622   .     S
Si595  O690    1.626   .     S
Si595  O691    1.629   .     S
Si595  O722    1.621   .     S
Si595  O861    1.624   .     S
Si596  O691    1.635   .     S
Si596  O692    1.618   .     S
Si596  O719    1.619   .     S
Si596  O862    1.625   .     S
Si597  O692    1.624   .     S
Si597  O693    1.628   .     S
Si597  O696    1.620   .     S
Si598  O693    1.626   .     S
Si598  O694    1.628   .     S
Si598  O702    1.629   .     S
Si598  O860    1.623   .     S
Si599  O705    1.623   .     S
Si599  O719    1.625   .     S
Si599  O720    1.629   .     S
Si599  O791    1.614   .     S
Si600  O705    1.618   .     S
Si600  O706    1.628   .     S
Si600  O710    1.622   .     S
Si600  O717    1.621   .     S
Si601  O701    1.624   .     S
Si601  O702    1.629   .     S
Si601  O707    1.629   .     S
Si601  O4222   1.623   1_554 S
Si602  O698    1.622   .     S
Si602  O699    1.626   .     S
Si602  O707    1.620   .     S
Si602  O4224   1.621   1_554 S
Si603  O708    1.624   .     S
Si603  O709    1.618   .     S
Si603  O718    1.618   .     S
Si603  O725    1.627   .     S
Si604  O709    1.625   .     S
Si604  O710    1.620   .     S
Si604  O722    1.624   .     S
Si604  O723    1.624   .     S
Si605  O711    1.622   .     S
Si605  O721    1.627   .     S
Si605  O792    1.629   .     S
Si605  O1151   1.622   .     S
Si606  O711    1.617   .     S
Si606  O712    1.622   .     S
Si606  O716    1.626   .     S
Si606  O717    1.622   .     S
Si607  O700    1.621   .     S
Si607  O713    1.634   .     S
Si607  O1153   1.622   .     S
Si607  O4228   1.624   1_554 S
Si608  O697    1.624   .     S
Si608  O713    1.632   .     S
Si608  O1154   1.625   .     S
Si608  O4230   1.621   1_554 S
Si609  O714    1.621   .     S
Si609  O715    1.626   .     S
Si609  O718    1.627   .     S
Si609  O726    1.624   .     S
Si610  O715    1.628   .     S
Si610  O716    1.626   .     S
Si610  O724    1.626   .     S
Si610  O1152   1.622   .     S
Si611  O727    1.619   .     S
Si611  O741    1.630   .     S
Si611  O742    1.627   .     S
Si611  O857    1.621   .     S
Si612  O727    1.622   .     S
Si612  O728    1.628   .     S
Si612  O732    1.620   .     S
Si612  O739    1.623   .     S
Si613  O728    1.625   .     S
Si613  O729    1.625   .     S
Si613  O767    1.625   .     S
Si613  O768    1.630   .     S
Si614  O729    1.621   .     S
Si614  O730    1.619   .     S
Si614  O764    1.623   .     S
Si614  O765    1.625   .     S
Si615  O730    1.627   .     S
Si615  O731    1.623   .     S
Si615  O740    1.625   .     S
Si615  O1333   1.626   .     S
Si616  O731    1.623   .     S
Si616  O732    1.622   .     S
Si616  O744    1.624   .     S
Si616  O745    1.627   .     S
Si617  O733    1.622   .     S
Si617  O743    1.626   .     S
Si617  O858    1.631   .     S
Si617  O867    1.625   .     S
Si618  O733    1.621   .     S
Si618  O734    1.622   .     S
Si618  O738    1.626   .     S
Si618  O739    1.626   .     S
Si619  O734    1.628   .     S
Si619  O735    1.634   .     S
Si619  O766    1.624   .     S
Si619  O869    1.623   .     S
Si620  O735    1.632   .     S
Si620  O736    1.621   .     S
Si620  O763    1.624   .     S
Si620  O870    1.623   .     S
Si621  O736    1.622   .     S
Si621  O737    1.628   .     S
Si621  O740    1.624   .     S
Si621  O1334   1.626   .     S
Si622  O737    1.630   .     S
Si622  O738    1.629   .     S
Si622  O746    1.626   .     S
Si622  O868    1.620   .     S
Si623  O749    1.621   .     S
Si623  O763    1.624   .     S
Si623  O764    1.626   .     S
Si623  O835    1.623   .     S
Si624  O749    1.620   .     S
Si624  O750    1.623   .     S
Si624  O754    1.621   .     S
Si624  O761    1.624   .     S
Si625  O745    1.627   .     S
Si625  O746    1.623   .     S
Si625  O751    1.626   .     S
Si625  O2508   1.622   .     S
Si626  O742    1.628   .     S
Si626  O743    1.621   .     S
Si626  O751    1.621   .     S
Si626  O2510   1.619   .     S
Si627  O752    1.626   .     S
Si627  O753    1.621   .     S
Si627  O762    1.626   .     S
Si627  O769    1.625   .     S
Si628  O753    1.623   .     S
Si628  O754    1.624   .     S
Si628  O766    1.623   .     S
Si628  O767    1.627   .     S
Si629  O755    1.623   .     S
Si629  O765    1.629   .     S
Si629  O836    1.631   .     S
Si629  O871    1.619   .     S
Si630  O755    1.619   .     S
Si630  O756    1.623   .     S
Si630  O760    1.628   .     S
Si630  O761    1.621   .     S
Si631  O744    1.621   .     S
Si631  O757    1.636   .     S
Si631  O873    1.621   .     S
Si631  O2514   1.624   .     S
Si632  O741    1.622   .     S
Si632  O757    1.628   .     S
Si632  O874    1.632   .     S
Si632  O2516   1.620   .     S
Si633  O758    1.626   .     S
Si633  O759    1.626   .     S
Si633  O762    1.619   .     S
Si633  O770    1.627   .     S
Si634  O759    1.629   .     S
Si634  O760    1.628   .     S
Si634  O768    1.629   .     S
Si634  O872    1.622   .     S
Si635  O725    1.606   .     S
Si635  O771    1.695   .     S
Si635  O785    1.616   .     S
Si635  O786    1.598   .     S
Si636  O772    1.593   .     S
Si636  O773    1.640   .     S
Si636  O811    1.636   .     S
Si636  O812    1.638   .     S
Si637  O773    1.622   .     S
Si637  O774    1.618   .     S
Si637  O808    1.629   .     S
Si637  O809    1.629   .     S
Si638  O774    1.627   .     S
Si638  O775    1.616   .     S
Si638  O784    1.627   .     S
Si638  O1377   1.623   .     S
Si639  O775    1.631   .     S
Si639  O776    1.592   .     S
Si639  O788    1.635   .     S
Si639  O789    1.636   .     S
Si640  O726    1.634   .     S
Si640  O777    1.619   .     S
Si640  O787    1.634   .     S
Si640  O1155   1.626   .     S
Si641  O777    1.634   .     S
Si641  O778    1.627   .     S
Si641  O782    1.638   .     S
Si641  O783    1.601   .     S
Si642  O778    1.617   .     S
Si642  O779    1.634   .     S
Si642  O810    1.622   .     S
Si642  O1157   1.630   .     S
Si643  O779    1.630   .     S
Si643  O780    1.621   .     S
Si643  O807    1.621   .     S
Si643  O1158   1.627   .     S
Si644  O780    1.625   .     S
Si644  O781    1.623   .     S
Si644  O784    1.621   .     S
Si644  O1378   1.630   .     S
Si645  O781    1.628   .     S
Si645  O782    1.622   .     S
Si645  O790    1.625   .     S
Si645  O1156   1.626   .     S
Si646  O703    1.622   .     S
Si646  O793    1.618   .     S
Si646  O807    1.623   .     S
Si646  O808    1.629   .     S
Si647  O793    1.618   .     S
Si647  O794    1.626   .     S
Si647  O798    1.618   .     S
Si647  O805    1.628   .     S
Si648  O789    1.619   .     S
Si648  O790    1.623   .     S
Si648  O795    1.632   .     S
Si648  O2552   1.627   .     S
Si649  O786    1.636   .     S
Si649  O787    1.622   .     S
Si649  O795    1.613   .     S
Si649  O2554   1.619   .     S
Si650  O796    1.627   .     S
Si650  O797    1.619   .     S
Si650  O806    1.630   .     S
Si650  O813    1.625   .     S
Si651  O797    1.628   .     S
Si651  O798    1.621   .     S
Si651  O810    1.623   .     S
Si651  O811    1.625   .     S
Si652  O704    1.631   .     S
Si652  O799    1.618   .     S
Si652  O809    1.626   .     S
Si652  O871    1.622   .     S
Si653  O799    1.616   .     S
Si653  O800    1.617   .     S
Si653  O804    1.630   .     S
Si653  O805    1.621   .     S
Si654  O788    1.611   .     S
Si654  O801    1.643   .     S
Si654  O873    1.624   .     S
Si654  O2558   1.620   .     S
Si655  O785    1.632   .     S
Si655  O801    1.625   .     S
Si655  O874    1.626   .     S
Si655  O2560   1.618   .     S
Si656  O802    1.628   .     S
Si656  O803    1.625   .     S
Si656  O806    1.623   .     S
Si656  O814    1.627   .     S
Si657  O803    1.633   .     S
Si657  O804    1.627   .     S
Si657  O812    1.617   .     S
Si657  O872    1.624   .     S
Si658  O769    1.622   .     S
Si658  O815    1.626   .     S
Si658  O829    1.625   .     S
Si658  O830    1.629   .     S
Si659  O815    1.624   .     S
Si659  O816    1.625   .     S
Si659  O820    1.619   .     S
Si659  O827    1.625   .     S
Si660  O816    1.623   .     S
Si660  O817    1.626   .     S
Si660  O855    1.626   .     S
Si660  O856    1.625   .     S
Si661  O817    1.624   .     S
Si661  O818    1.620   .     S
Si661  O852    1.623   .     S
Si661  O853    1.626   .     S
Si662  O818    1.628   .     S
Si662  O819    1.623   .     S
Si662  O828    1.628   .     S
Si663  O819    1.622   .     S
Si663  O820    1.622   .     S
Si663  O832    1.623   .     S
Si663  O833    1.628   .     S
Si664  O770    1.629   .     S
Si664  O821    1.623   .     S
Si664  O831    1.626   .     S
Si664  O859    1.622   .     S
Si665  O821    1.621   .     S
Si665  O822    1.618   .     S
Si665  O826    1.625   .     S
Si665  O827    1.623   .     S
Si666  O822    1.622   .     S
Si666  O823    1.630   .     S
Si666  O854    1.621   .     S
Si666  O861    1.624   .     S
Si667  O823    1.633   .     S
Si667  O824    1.623   .     S
Si667  O851    1.623   .     S
Si667  O862    1.623   .     S
Si668  O824    1.626   .     S
Si668  O825    1.629   .     S
Si668  O828    1.625   .     S
Si669  O825    1.628   .     S
Si669  O826    1.630   .     S
Si669  O834    1.626   .     S
Si669  O860    1.623   .     S
Si670  O747    1.623   .     S
Si670  O837    1.625   .     S
Si670  O851    1.628   .     S
Si670  O852    1.625   .     S
Si671  O837    1.623   .     S
Si671  O838    1.624   .     S
Si671  O842    1.622   .     S
Si671  O849    1.623   .     S
Si672  O833    1.626   .     S
Si672  O834    1.626   .     S
Si672  O839    1.628   .     S
Si672  O4354   1.623   1_554 S
Si673  O830    1.623   .     S
Si673  O831    1.625   .     S
Si673  O839    1.623   .     S
Si673  O4356   1.622   1_554 S
Si674  O840    1.627   .     S
Si674  O841    1.622   .     S
Si674  O850    1.626   .     S
Si674  O857    1.623   .     S
Si675  O841    1.621   .     S
Si675  O842    1.622   .     S
Si675  O854    1.625   .     S
Si675  O855    1.625   .     S
Si676  O748    1.628   .     S
Si676  O843    1.622   .     S
Si676  O853    1.632   .     S
Si676  O863    1.620   .     S
Si677  O843    1.617   .     S
Si677  O844    1.619   .     S
Si677  O848    1.627   .     S
Si677  O849    1.623   .     S
Si678  O832    1.622   .     S
Si678  O845    1.632   .     S
Si678  O865    1.623   .     S
Si678  O4360   1.621   1_554 S
Si679  O829    1.622   .     S
Si679  O845    1.631   .     S
Si679  O866    1.625   .     S
Si679  O4362   1.625   1_554 S
Si680  O846    1.627   .     S
Si680  O847    1.624   .     S
Si680  O850    1.625   .     S
Si680  O858    1.625   .     S
Si681  O847    1.627   .     S
Si681  O848    1.629   .     S
Si681  O856    1.626   .     S
Si681  O864    1.621   .     S
Al682  O771    1.892   .     S
Al682  O772    1.714   .     S
Al682  O776    1.703   .     S
Al682  O783    1.715   .     S
O703   Si1177  1.620   .     S
O704   Si1183  1.625   .     S
O706   Si2359  1.623   .     S
O708   Si2360  1.621   .     S
O712   Si2365  1.624   .     S
O714   Si2366  1.621   .     S
O750   Si4141  1.622   1_554 S
O752   Si4142  1.619   1_554 S
O756   Si4147  1.624   1_554 S
O758   Si4148  1.620   1_554 S
O794   Si4164  1.627   1_554 S
O796   Si4165  1.619   1_554 S
O800   Si4170  1.620   1_554 S
O802   Si4171  1.618   1_554 S
O835   Si1248  1.623   .     S
O836   Si1254  1.626   .     S
O838   Si2430  1.623   .     S
O840   Si2431  1.622   .     S
O844   Si2436  1.621   .     S
O846   Si2437  1.625   .     S
O863   Si893   1.622   1_545 S
O864   Si898   1.622   1_545 S
O865   Si895   1.622   1_545 S
O866   Si896   1.625   1_545 S
O867   Si928   1.626   1_545 S
O868   Si933   1.626   1_545 S
O869   Si930   1.630   1_545 S
O870   Si931   1.627   1_545 S
Si875  O971    1.621   .     S
Si875  O985    1.626   .     S
Si875  O986    1.629   .     S
Si875  O1101   1.621   .     S
Si876  O971    1.621   .     S
Si876  O972    1.623   .     S
Si876  O976    1.617   .     S
Si876  O983    1.626   .     S
Si877  O972    1.622   .     S
Si877  O973    1.623   .     S
Si877  O1011   1.627   .     S
Si877  O1012   1.625   .     S
Si878  O973    1.622   .     S
Si878  O974    1.617   .     S
Si878  O1008   1.626   .     S
Si878  O1009   1.623   .     S
Si879  O974    1.626   .     S
Si879  O975    1.623   .     S
Si879  O984    1.625   .     S
Si880  O975    1.620   .     S
Si880  O976    1.622   .     S
Si880  O988    1.622   .     S
Si880  O989    1.627   .     S
Si881  O977    1.620   .     S
Si881  O987    1.630   .     S
Si881  O1102   1.629   .     S
Si881  O1147   1.621   .     S
Si882  O977    1.619   .     S
Si882  O978    1.624   .     S
Si882  O982    1.623   .     S
Si882  O983    1.622   .     S
Si883  O978    1.626   .     S
Si883  O979    1.629   .     S
Si883  O1010   1.621   .     S
Si883  O1149   1.624   .     S
Si884  O979    1.635   .     S
Si884  O980    1.618   .     S
Si884  O1007   1.619   .     S
Si884  O1150   1.625   .     S
Si885  O980    1.624   .     S
Si885  O981    1.628   .     S
Si885  O984    1.620   .     S
Si886  O981    1.626   .     S
Si886  O982    1.628   .     S
Si886  O990    1.629   .     S
Si886  O1148   1.623   .     S
Si887  O993    1.623   .     S
Si887  O1007   1.625   .     S
Si887  O1008   1.629   .     S
Si887  O1079   1.614   .     S
Si888  O993    1.618   .     S
Si888  O994    1.628   .     S
Si888  O998    1.622   .     S
Si888  O1005   1.621   .     S
Si889  O989    1.624   .     S
Si889  O990    1.629   .     S
Si889  O995    1.629   .     S
Si889  O4510   1.623   1_554 S
Si890  O986    1.622   .     S
Si890  O987    1.626   .     S
Si890  O995    1.620   .     S
Si890  O4512   1.621   1_554 S
Si891  O996    1.624   .     S
Si891  O997    1.618   .     S
Si891  O1006   1.618   .     S
Si891  O1013   1.627   .     S
Si892  O997    1.625   .     S
Si892  O998    1.620   .     S
Si892  O1010   1.624   .     S
Si892  O1011   1.624   .     S
Si893  O999    1.622   .     S
Si893  O1009   1.627   .     S
Si893  O1080   1.629   .     S
Si893  O863    1.622   1_565 S
Si894  O999    1.617   .     S
Si894  O1000   1.622   .     S
Si894  O1004   1.626   .     S
Si894  O1005   1.622   .     S
Si895  O988    1.621   .     S
Si895  O1001   1.634   .     S
Si895  O865    1.622   1_565 S
Si895  O4516   1.624   1_554 S
Si896  O985    1.624   .     S
Si896  O1001   1.632   .     S
Si896  O866    1.625   1_565 S
Si896  O4518   1.621   1_554 S
Si897  O1002   1.621   .     S
Si897  O1003   1.626   .     S
Si897  O1006   1.627   .     S
Si897  O1014   1.624   .     S
Si898  O1003   1.628   .     S
Si898  O1004   1.626   .     S
Si898  O1012   1.626   .     S
Si898  O864    1.622   1_565 S
Si899  O1015   1.619   .     S
Si899  O1029   1.630   .     S
Si899  O1030   1.627   .     S
Si899  O1145   1.621   .     S
Si900  O1015   1.622   .     S
Si900  O1016   1.628   .     S
Si900  O1020   1.620   .     S
Si900  O1027   1.623   .     S
Si901  O1016   1.625   .     S
Si901  O1017   1.625   .     S
Si901  O1055   1.625   .     S
Si901  O1056   1.630   .     S
Si902  O1017   1.621   .     S
Si902  O1018   1.619   .     S
Si902  O1052   1.623   .     S
Si902  O1053   1.625   .     S
Si903  O1018   1.627   .     S
Si903  O1019   1.623   .     S
Si903  O1028   1.625   .     S
Si903  O1621   1.626   .     S
Si904  O1019   1.623   .     S
Si904  O1020   1.622   .     S
Si904  O1032   1.624   .     S
Si904  O1033   1.627   .     S
Si905  O1021   1.622   .     S
Si905  O1031   1.626   .     S
Si905  O1146   1.631   .     S
Si905  O1155   1.625   .     S
Si906  O1021   1.621   .     S
Si906  O1022   1.622   .     S
Si906  O1026   1.626   .     S
Si906  O1027   1.626   .     S
Si907  O1022   1.628   .     S
Si907  O1023   1.634   .     S
Si907  O1054   1.624   .     S
Si907  O1157   1.623   .     S
Si908  O1023   1.632   .     S
Si908  O1024   1.621   .     S
Si908  O1051   1.624   .     S
Si908  O1158   1.623   .     S
Si909  O1024   1.622   .     S
Si909  O1025   1.628   .     S
Si909  O1028   1.624   .     S
Si909  O1622   1.626   .     S
Si910  O1025   1.630   .     S
Si910  O1026   1.629   .     S
Si910  O1034   1.626   .     S
Si910  O1156   1.620   .     S
Si911  O1037   1.621   .     S
Si911  O1051   1.624   .     S
Si911  O1052   1.626   .     S
Si911  O1123   1.623   .     S
Si912  O1037   1.620   .     S
Si912  O1038   1.623   .     S
Si912  O1042   1.621   .     S
Si912  O1049   1.624   .     S
Si913  O1033   1.627   .     S
Si913  O1034   1.623   .     S
Si913  O1039   1.626   .     S
Si913  O2796   1.622   .     S
Si914  O1030   1.628   .     S
Si914  O1031   1.621   .     S
Si914  O1039   1.621   .     S
Si914  O2798   1.619   .     S
Si915  O1040   1.626   .     S
Si915  O1041   1.621   .     S
Si915  O1050   1.626   .     S
Si915  O1057   1.625   .     S
Si916  O1041   1.623   .     S
Si916  O1042   1.624   .     S
Si916  O1054   1.623   .     S
Si916  O1055   1.627   .     S
Si917  O1043   1.623   .     S
Si917  O1053   1.629   .     S
Si917  O1124   1.631   .     S
Si917  O1159   1.619   .     S
Si918  O1043   1.619   .     S
Si918  O1044   1.623   .     S
Si918  O1048   1.628   .     S
Si918  O1049   1.621   .     S
Si919  O1032   1.621   .     S
Si919  O1045   1.636   .     S
Si919  O1161   1.621   .     S
Si919  O2802   1.624   .     S
Si920  O1029   1.622   .     S
Si920  O1045   1.628   .     S
Si920  O1162   1.632   .     S
Si920  O2804   1.620   .     S
Si921  O1046   1.626   .     S
Si921  O1047   1.626   .     S
Si921  O1050   1.619   .     S
Si921  O1058   1.627   .     S
Si922  O1047   1.629   .     S
Si922  O1048   1.628   .     S
Si922  O1056   1.629   .     S
Si922  O1160   1.622   .     S
Si923  O1013   1.606   .     S
Si923  O1059   1.695   .     S
Si923  O1073   1.616   .     S
Si923  O1074   1.598   .     S
Si924  O1060   1.593   .     S
Si924  O1061   1.640   .     S
Si924  O1099   1.636   .     S
Si924  O1100   1.638   .     S
Si925  O1061   1.622   .     S
Si925  O1062   1.618   .     S
Si925  O1096   1.629   .     S
Si925  O1097   1.629   .     S
Si926  O1062   1.627   .     S
Si926  O1063   1.616   .     S
Si926  O1072   1.627   .     S
Si926  O1665   1.623   .     S
Si927  O1063   1.631   .     S
Si927  O1064   1.592   .     S
Si927  O1076   1.635   .     S
Si927  O1077   1.636   .     S
Si928  O1014   1.634   .     S
Si928  O1065   1.619   .     S
Si928  O1075   1.634   .     S
Si928  O867    1.626   1_565 S
Si929  O1065   1.634   .     S
Si929  O1066   1.627   .     S
Si929  O1070   1.638   .     S
Si929  O1071   1.601   .     S
Si930  O1066   1.617   .     S
Si930  O1067   1.634   .     S
Si930  O1098   1.622   .     S
Si930  O869    1.630   1_565 S
Si931  O1067   1.630   .     S
Si931  O1068   1.621   .     S
Si931  O1095   1.621   .     S
Si931  O870    1.627   1_565 S
Si932  O1068   1.625   .     S
Si932  O1069   1.623   .     S
Si932  O1072   1.621   .     S
Si932  O1666   1.630   .     S
Si933  O1069   1.628   .     S
Si933  O1070   1.622   .     S
Si933  O1078   1.625   .     S
Si933  O868    1.626   1_565 S
Si934  O991    1.622   .     S
Si934  O1081   1.618   .     S
Si934  O1095   1.623   .     S
Si934  O1096   1.629   .     S
Si935  O1081   1.618   .     S
Si935  O1082   1.626   .     S
Si935  O1086   1.618   .     S
Si935  O1093   1.628   .     S
Si936  O1077   1.619   .     S
Si936  O1078   1.623   .     S
Si936  O1083   1.632   .     S
Si936  O2840   1.627   .     S
Si937  O1074   1.636   .     S
Si937  O1075   1.622   .     S
Si937  O1083   1.613   .     S
Si937  O2842   1.619   .     S
Si938  O1084   1.627   .     S
Si938  O1085   1.619   .     S
Si938  O1094   1.630   .     S
Si938  O1101   1.625   .     S
Si939  O1085   1.628   .     S
Si939  O1086   1.621   .     S
Si939  O1098   1.623   .     S
Si939  O1099   1.625   .     S
Si940  O992    1.631   .     S
Si940  O1087   1.618   .     S
Si940  O1097   1.626   .     S
Si940  O1159   1.622   .     S
Si941  O1087   1.616   .     S
Si941  O1088   1.617   .     S
Si941  O1092   1.630   .     S
Si941  O1093   1.621   .     S
Si942  O1076   1.611   .     S
Si942  O1089   1.643   .     S
Si942  O1161   1.624   .     S
Si942  O2846   1.620   .     S
Si943  O1073   1.632   .     S
Si943  O1089   1.625   .     S
Si943  O1162   1.626   .     S
Si943  O2848   1.618   .     S
Si944  O1090   1.628   .     S
Si944  O1091   1.625   .     S
Si944  O1094   1.623   .     S
Si944  O1102   1.627   .     S
Si945  O1091   1.633   .     S
Si945  O1092   1.627   .     S
Si945  O1100   1.617   .     S
Si945  O1160   1.624   .     S
Si946  O1057   1.622   .     S
Si946  O1103   1.626   .     S
Si946  O1117   1.625   .     S
Si946  O1118   1.629   .     S
Si947  O1103   1.624   .     S
Si947  O1104   1.625   .     S
Si947  O1108   1.619   .     S
Si947  O1115   1.625   .     S
Si948  O1104   1.623   .     S
Si948  O1105   1.626   .     S
Si948  O1143   1.626   .     S
Si948  O1144   1.625   .     S
Si949  O1105   1.624   .     S
Si949  O1106   1.620   .     S
Si949  O1140   1.623   .     S
Si949  O1141   1.626   .     S
Si950  O1106   1.628   .     S
Si950  O1107   1.623   .     S
Si950  O1116   1.628   .     S
Si951  O1107   1.622   .     S
Si951  O1108   1.622   .     S
Si951  O1120   1.623   .     S
Si951  O1121   1.628   .     S
Si952  O1058   1.629   .     S
Si952  O1109   1.623   .     S
Si952  O1119   1.626   .     S
Si952  O1147   1.622   .     S
Si953  O1109   1.621   .     S
Si953  O1110   1.618   .     S
Si953  O1114   1.625   .     S
Si953  O1115   1.623   .     S
Si954  O1110   1.622   .     S
Si954  O1111   1.630   .     S
Si954  O1142   1.621   .     S
Si954  O1149   1.624   .     S
Si955  O1111   1.633   .     S
Si955  O1112   1.623   .     S
Si955  O1139   1.623   .     S
Si955  O1150   1.623   .     S
Si956  O1112   1.626   .     S
Si956  O1113   1.629   .     S
Si956  O1116   1.625   .     S
Si957  O1113   1.628   .     S
Si957  O1114   1.630   .     S
Si957  O1122   1.626   .     S
Si957  O1148   1.623   .     S
Si958  O1035   1.623   .     S
Si958  O1125   1.625   .     S
Si958  O1139   1.628   .     S
Si958  O1140   1.625   .     S
Si959  O1125   1.623   .     S
Si959  O1126   1.624   .     S
Si959  O1130   1.622   .     S
Si959  O1137   1.623   .     S
Si960  O1121   1.626   .     S
Si960  O1122   1.626   .     S
Si960  O1127   1.628   .     S
Si960  O4642   1.623   1_554 S
Si961  O1118   1.623   .     S
Si961  O1119   1.625   .     S
Si961  O1127   1.623   .     S
Si961  O4644   1.622   1_554 S
Si962  O1128   1.627   .     S
Si962  O1129   1.622   .     S
Si962  O1138   1.626   .     S
Si962  O1145   1.623   .     S
Si963  O1129   1.621   .     S
Si963  O1130   1.622   .     S
Si963  O1142   1.625   .     S
Si963  O1143   1.625   .     S
Si964  O1036   1.628   .     S
Si964  O1131   1.622   .     S
Si964  O1141   1.632   .     S
Si964  O1151   1.620   .     S
Si965  O1131   1.617   .     S
Si965  O1132   1.619   .     S
Si965  O1136   1.627   .     S
Si965  O1137   1.623   .     S
Si966  O1120   1.622   .     S
Si966  O1133   1.632   .     S
Si966  O1153   1.623   .     S
Si966  O4648   1.621   1_554 S
Si967  O1117   1.622   .     S
Si967  O1133   1.631   .     S
Si967  O1154   1.625   .     S
Si967  O4650   1.625   1_554 S
Si968  O1134   1.627   .     S
Si968  O1135   1.624   .     S
Si968  O1138   1.625   .     S
Si968  O1146   1.625   .     S
Si969  O1135   1.627   .     S
Si969  O1136   1.629   .     S
Si969  O1144   1.626   .     S
Si969  O1152   1.621   .     S
Al970  O1059   1.892   .     S
Al970  O1060   1.714   .     S
Al970  O1064   1.703   .     S
Al970  O1071   1.715   .     S
O991   Si1465  1.620   .     S
O992   Si1471  1.625   .     S
O994   Si2647  1.623   .     S
O996   Si2648  1.621   .     S
O1000  Si2653  1.624   .     S
O1002  Si2654  1.621   .     S
O1038  Si4429  1.622   1_554 S
O1040  Si4430  1.619   1_554 S
O1044  Si4435  1.624   1_554 S
O1046  Si4436  1.620   1_554 S
O1059  H1163   1.007   .     S
O1082  Si4452  1.627   1_554 S
O1084  Si4453  1.619   1_554 S
O1088  Si4458  1.620   1_554 S
O1090  Si4459  1.618   1_554 S
O1123  Si1536  1.623   .     S
O1124  Si1542  1.626   .     S
O1126  Si2718  1.623   .     S
O1128  Si2719  1.622   .     S
O1132  Si2724  1.621   .     S
O1134  Si2725  1.625   .     S
H1164  C1170   1.090   .     S
H1165  C1171   1.087   .     S
H1166  C1168   1.090   .     S
H1167  C1169   1.086   .     S
C1168  C1169   1.370   .     D
C1168  C1170   1.431   .     S
C1169  S1172   1.726   .     S
C1170  C1171   1.370   .     D
C1171  S1172   1.729   .     S
Si1173 O1269   1.621   .     S
Si1173 O1283   1.626   .     S
Si1173 O1284   1.629   .     S
Si1173 O1399   1.621   .     S
Si1174 O1269   1.621   .     S
Si1174 O1270   1.623   .     S
Si1174 O1274   1.617   .     S
Si1174 O1281   1.626   .     S
Si1175 O1270   1.622   .     S
Si1175 O1271   1.623   .     S
Si1175 O1309   1.627   .     S
Si1175 O1310   1.625   .     S
Si1176 O1271   1.622   .     S
Si1176 O1272   1.617   .     S
Si1176 O1306   1.626   .     S
Si1176 O1307   1.623   .     S
Si1177 O1272   1.626   .     S
Si1177 O1273   1.623   .     S
Si1177 O1282   1.625   .     S
Si1178 O1273   1.620   .     S
Si1178 O1274   1.622   .     S
Si1178 O1286   1.622   .     S
Si1178 O1287   1.627   .     S
Si1179 O1275   1.620   .     S
Si1179 O1285   1.630   .     S
Si1179 O1400   1.629   .     S
Si1179 O1445   1.621   .     S
Si1180 O1275   1.619   .     S
Si1180 O1276   1.624   .     S
Si1180 O1280   1.623   .     S
Si1180 O1281   1.622   .     S
Si1181 O1276   1.626   .     S
Si1181 O1277   1.629   .     S
Si1181 O1308   1.621   .     S
Si1181 O1447   1.624   .     S
Si1182 O1277   1.635   .     S
Si1182 O1278   1.618   .     S
Si1182 O1305   1.619   .     S
Si1182 O1448   1.625   .     S
Si1183 O1278   1.624   .     S
Si1183 O1279   1.628   .     S
Si1183 O1282   1.620   .     S
Si1184 O1279   1.626   .     S
Si1184 O1280   1.628   .     S
Si1184 O1288   1.629   .     S
Si1184 O1446   1.623   .     S
Si1185 O1291   1.623   .     S
Si1185 O1305   1.625   .     S
Si1185 O1306   1.629   .     S
Si1185 O1377   1.614   .     S
Si1186 O1291   1.618   .     S
Si1186 O1292   1.628   .     S
Si1186 O1296   1.622   .     S
Si1186 O1303   1.621   .     S
Si1187 O1287   1.624   .     S
Si1187 O1288   1.629   .     S
Si1187 O1293   1.629   .     S
Si1187 O4808   1.623   1_554 S
Si1188 O1284   1.622   .     S
Si1188 O1285   1.626   .     S
Si1188 O1293   1.620   .     S
Si1188 O4810   1.621   1_554 S
Si1189 O1294   1.624   .     S
Si1189 O1295   1.618   .     S
Si1189 O1304   1.618   .     S
Si1189 O1311   1.627   .     S
Si1190 O1295   1.625   .     S
Si1190 O1296   1.620   .     S
Si1190 O1308   1.624   .     S
Si1190 O1309   1.624   .     S
Si1191 O1297   1.622   .     S
Si1191 O1307   1.627   .     S
Si1191 O1378   1.629   .     S
Si1191 O1737   1.622   .     S
Si1192 O1297   1.617   .     S
Si1192 O1298   1.622   .     S
Si1192 O1302   1.626   .     S
Si1192 O1303   1.622   .     S
Si1193 O1286   1.621   .     S
Si1193 O1299   1.634   .     S
Si1193 O1739   1.622   .     S
Si1193 O4814   1.624   1_554 S
Si1194 O1283   1.624   .     S
Si1194 O1299   1.632   .     S
Si1194 O1740   1.625   .     S
Si1194 O4816   1.621   1_554 S
Si1195 O1300   1.621   .     S
Si1195 O1301   1.626   .     S
Si1195 O1304   1.627   .     S
Si1195 O1312   1.624   .     S
Si1196 O1301   1.628   .     S
Si1196 O1302   1.626   .     S
Si1196 O1310   1.626   .     S
Si1196 O1738   1.622   .     S
Si1197 O1313   1.619   .     S
Si1197 O1327   1.630   .     S
Si1197 O1328   1.627   .     S
Si1197 O1443   1.621   .     S
Si1198 O1313   1.622   .     S
Si1198 O1314   1.628   .     S
Si1198 O1318   1.620   .     S
Si1198 O1325   1.623   .     S
Si1199 O1314   1.625   .     S
Si1199 O1315   1.625   .     S
Si1199 O1353   1.625   .     S
Si1199 O1354   1.630   .     S
Si1200 O1315   1.621   .     S
Si1200 O1316   1.619   .     S
Si1200 O1350   1.623   .     S
Si1200 O1351   1.625   .     S
Si1201 O1316   1.627   .     S
Si1201 O1317   1.623   .     S
Si1201 O1326   1.625   .     S
Si1201 O161    1.626   1_655 S
Si1202 O1317   1.623   .     S
Si1202 O1318   1.622   .     S
Si1202 O1330   1.624   .     S
Si1202 O1331   1.627   .     S
Si1203 O1319   1.622   .     S
Si1203 O1329   1.626   .     S
Si1203 O1444   1.631   .     S
Si1203 O1453   1.625   .     S
Si1204 O1319   1.621   .     S
Si1204 O1320   1.622   .     S
Si1204 O1324   1.626   .     S
Si1204 O1325   1.626   .     S
Si1205 O1320   1.628   .     S
Si1205 O1321   1.634   .     S
Si1205 O1352   1.624   .     S
Si1205 O1455   1.623   .     S
Si1206 O1321   1.632   .     S
Si1206 O1322   1.621   .     S
Si1206 O1349   1.624   .     S
Si1206 O1456   1.623   .     S
Si1207 O1322   1.622   .     S
Si1207 O1323   1.628   .     S
Si1207 O1326   1.624   .     S
Si1207 O162    1.626   1_655 S
Si1208 O1323   1.630   .     S
Si1208 O1324   1.629   .     S
Si1208 O1332   1.626   .     S
Si1208 O1454   1.620   .     S
Si1209 O1335   1.621   .     S
Si1209 O1349   1.624   .     S
Si1209 O1350   1.626   .     S
Si1209 O1421   1.623   .     S
Si1210 O1335   1.620   .     S
Si1210 O1336   1.623   .     S
Si1210 O1340   1.621   .     S
Si1210 O1347   1.624   .     S
Si1211 O1331   1.627   .     S
Si1211 O1332   1.623   .     S
Si1211 O1337   1.626   .     S
Si1211 O3094   1.622   .     S
Si1212 O1328   1.628   .     S
Si1212 O1329   1.621   .     S
Si1212 O1337   1.621   .     S
Si1212 O3096   1.619   .     S
Si1213 O1338   1.626   .     S
Si1213 O1339   1.621   .     S
Si1213 O1348   1.626   .     S
Si1213 O1355   1.625   .     S
Si1214 O1339   1.623   .     S
Si1214 O1340   1.624   .     S
Si1214 O1352   1.623   .     S
Si1214 O1353   1.627   .     S
Si1215 O1341   1.623   .     S
Si1215 O1351   1.629   .     S
Si1215 O1422   1.631   .     S
Si1215 O1457   1.619   .     S
Si1216 O1341   1.619   .     S
Si1216 O1342   1.623   .     S
Si1216 O1346   1.628   .     S
Si1216 O1347   1.621   .     S
Si1217 O1330   1.621   .     S
Si1217 O1343   1.636   .     S
Si1217 O1459   1.621   .     S
Si1217 O3100   1.624   .     S
Si1218 O1327   1.622   .     S
Si1218 O1343   1.628   .     S
Si1218 O1460   1.632   .     S
Si1218 O3102   1.620   .     S
Si1219 O1344   1.626   .     S
Si1219 O1345   1.626   .     S
Si1219 O1348   1.619   .     S
Si1219 O1356   1.627   .     S
Si1220 O1345   1.629   .     S
Si1220 O1346   1.628   .     S
Si1220 O1354   1.629   .     S
Si1220 O1458   1.622   .     S
Si1221 O1311   1.606   .     S
Si1221 O1357   1.695   .     S
Si1221 O1371   1.616   .     S
Si1221 O1372   1.598   .     S
Si1222 O1358   1.593   .     S
Si1222 O1359   1.640   .     S
Si1222 O1397   1.636   .     S
Si1222 O1398   1.638   .     S
Si1223 O1359   1.622   .     S
Si1223 O1360   1.618   .     S
Si1223 O1394   1.629   .     S
Si1223 O1395   1.629   .     S
Si1224 O1360   1.627   .     S
Si1224 O1361   1.616   .     S
Si1224 O1370   1.627   .     S
Si1224 O205    1.623   1_655 S
Si1225 O1361   1.631   .     S
Si1225 O1362   1.592   .     S
Si1225 O1374   1.635   .     S
Si1225 O1375   1.636   .     S
Si1226 O1312   1.634   .     S
Si1226 O1363   1.619   .     S
Si1226 O1373   1.634   .     S
Si1226 O1741   1.626   .     S
Si1227 O1363   1.634   .     S
Si1227 O1364   1.627   .     S
Si1227 O1368   1.638   .     S
Si1227 O1369   1.601   .     S
Si1228 O1364   1.617   .     S
Si1228 O1365   1.634   .     S
Si1228 O1396   1.622   .     S
Si1228 O1743   1.630   .     S
Si1229 O1365   1.630   .     S
Si1229 O1366   1.621   .     S
Si1229 O1393   1.621   .     S
Si1229 O1744   1.627   .     S
Si1230 O1366   1.625   .     S
Si1230 O1367   1.623   .     S
Si1230 O1370   1.621   .     S
Si1230 O206    1.630   1_655 S
Si1231 O1367   1.628   .     S
Si1231 O1368   1.622   .     S
Si1231 O1376   1.625   .     S
Si1231 O1742   1.626   .     S
Si1232 O1289   1.622   .     S
Si1232 O1379   1.618   .     S
Si1232 O1393   1.623   .     S
Si1232 O1394   1.629   .     S
Si1233 O1379   1.618   .     S
Si1233 O1380   1.626   .     S
Si1233 O1384   1.618   .     S
Si1233 O1391   1.628   .     S
Si1234 O1375   1.619   .     S
Si1234 O1376   1.623   .     S
Si1234 O1381   1.632   .     S
Si1234 O3138   1.627   .     S
Si1235 O1372   1.636   .     S
Si1235 O1373   1.622   .     S
Si1235 O1381   1.613   .     S
Si1235 O3140   1.619   .     S
Si1236 O1382   1.627   .     S
Si1236 O1383   1.619   .     S
Si1236 O1392   1.630   .     S
Si1236 O1399   1.625   .     S
Si1237 O1383   1.628   .     S
Si1237 O1384   1.621   .     S
Si1237 O1396   1.623   .     S
Si1237 O1397   1.625   .     S
Si1238 O1290   1.631   .     S
Si1238 O1385   1.618   .     S
Si1238 O1395   1.626   .     S
Si1238 O1457   1.622   .     S
Si1239 O1385   1.616   .     S
Si1239 O1386   1.617   .     S
Si1239 O1390   1.630   .     S
Si1239 O1391   1.621   .     S
Si1240 O1374   1.611   .     S
Si1240 O1387   1.643   .     S
Si1240 O1459   1.624   .     S
Si1240 O3144   1.620   .     S
Si1241 O1371   1.632   .     S
Si1241 O1387   1.625   .     S
Si1241 O1460   1.626   .     S
Si1241 O3146   1.618   .     S
Si1242 O1388   1.628   .     S
Si1242 O1389   1.625   .     S
Si1242 O1392   1.623   .     S
Si1242 O1400   1.627   .     S
Si1243 O1389   1.633   .     S
Si1243 O1390   1.627   .     S
Si1243 O1398   1.617   .     S
Si1243 O1458   1.624   .     S
Si1244 O1355   1.622   .     S
Si1244 O1401   1.626   .     S
Si1244 O1415   1.625   .     S
Si1244 O1416   1.629   .     S
Si1245 O1401   1.624   .     S
Si1245 O1402   1.625   .     S
Si1245 O1406   1.619   .     S
Si1245 O1413   1.625   .     S
Si1246 O1402   1.623   .     S
Si1246 O1403   1.626   .     S
Si1246 O1441   1.626   .     S
Si1246 O1442   1.625   .     S
Si1247 O1403   1.624   .     S
Si1247 O1404   1.620   .     S
Si1247 O1438   1.623   .     S
Si1247 O1439   1.626   .     S
Si1248 O1404   1.628   .     S
Si1248 O1405   1.623   .     S
Si1248 O1414   1.628   .     S
Si1249 O1405   1.622   .     S
Si1249 O1406   1.622   .     S
Si1249 O1418   1.623   .     S
Si1249 O1419   1.628   .     S
Si1250 O1356   1.629   .     S
Si1250 O1407   1.623   .     S
Si1250 O1417   1.626   .     S
Si1250 O1445   1.622   .     S
Si1251 O1407   1.621   .     S
Si1251 O1408   1.618   .     S
Si1251 O1412   1.625   .     S
Si1251 O1413   1.623   .     S
Si1252 O1408   1.622   .     S
Si1252 O1409   1.630   .     S
Si1252 O1440   1.621   .     S
Si1252 O1447   1.624   .     S
Si1253 O1409   1.633   .     S
Si1253 O1410   1.623   .     S
Si1253 O1437   1.623   .     S
Si1253 O1448   1.623   .     S
Si1254 O1410   1.626   .     S
Si1254 O1411   1.629   .     S
Si1254 O1414   1.625   .     S
Si1255 O1411   1.628   .     S
Si1255 O1412   1.630   .     S
Si1255 O1420   1.626   .     S
Si1255 O1446   1.623   .     S
Si1256 O1333   1.623   .     S
Si1256 O1423   1.625   .     S
Si1256 O1437   1.628   .     S
Si1256 O1438   1.625   .     S
Si1257 O1423   1.623   .     S
Si1257 O1424   1.624   .     S
Si1257 O1428   1.622   .     S
Si1257 O1435   1.623   .     S
Si1258 O1419   1.626   .     S
Si1258 O1420   1.626   .     S
Si1258 O1425   1.628   .     S
Si1258 O4940   1.623   1_554 S
Si1259 O1416   1.623   .     S
Si1259 O1417   1.625   .     S
Si1259 O1425   1.623   .     S
Si1259 O4942   1.622   1_554 S
Si1260 O1426   1.627   .     S
Si1260 O1427   1.622   .     S
Si1260 O1436   1.626   .     S
Si1260 O1443   1.623   .     S
Si1261 O1427   1.621   .     S
Si1261 O1428   1.622   .     S
Si1261 O1440   1.625   .     S
Si1261 O1441   1.625   .     S
Si1262 O1334   1.628   .     S
Si1262 O1429   1.622   .     S
Si1262 O1439   1.632   .     S
Si1262 O1449   1.620   .     S
Si1263 O1429   1.617   .     S
Si1263 O1430   1.619   .     S
Si1263 O1434   1.627   .     S
Si1263 O1435   1.623   .     S
Si1264 O1418   1.622   .     S
Si1264 O1431   1.632   .     S
Si1264 O1451   1.623   .     S
Si1264 O4946   1.621   1_554 S
Si1265 O1415   1.622   .     S
Si1265 O1431   1.631   .     S
Si1265 O1452   1.625   .     S
Si1265 O4948   1.625   1_554 S
Si1266 O1432   1.627   .     S
Si1266 O1433   1.624   .     S
Si1266 O1436   1.625   .     S
Si1266 O1444   1.625   .     S
Si1267 O1433   1.627   .     S
Si1267 O1434   1.629   .     S
Si1267 O1442   1.626   .     S
Si1267 O1450   1.621   .     S
Al1268 O1357   1.892   .     S
Al1268 O1358   1.714   .     S
Al1268 O1362   1.703   .     S
Al1268 O1369   1.715   .     S
O1289  Si5     1.620   1_655 S
O1290  Si11    1.625   1_655 S
O1292  Si2945  1.623   .     S
O1294  Si2946  1.621   .     S
O1298  Si2951  1.624   .     S
O1300  Si2952  1.621   .     S
O1336  Si4727  1.622   1_554 S
O1338  Si4728  1.619   1_554 S
O1342  Si4733  1.624   1_554 S
O1344  Si4734  1.620   1_554 S
O1380  Si4750  1.627   1_554 S
O1382  Si4751  1.619   1_554 S
O1386  Si4756  1.620   1_554 S
O1388  Si4757  1.618   1_554 S
O1421  Si76    1.623   1_655 S
O1422  Si82    1.626   1_655 S
O1424  Si3016  1.623   .     S
O1426  Si3017  1.622   .     S
O1430  Si3022  1.621   .     S
O1432  Si3023  1.625   .     S
O1449  Si1479  1.622   1_545 S
O1450  Si1484  1.622   1_545 S
O1451  Si1481  1.622   1_545 S
O1452  Si1482  1.625   1_545 S
O1453  Si1514  1.626   1_545 S
O1454  Si1519  1.626   1_545 S
O1455  Si1516  1.630   1_545 S
O1456  Si1517  1.627   1_545 S
Si1461 O1557   1.621   .     S
Si1461 O1571   1.626   .     S
Si1461 O1572   1.629   .     S
Si1461 O1687   1.621   .     S
Si1462 O1557   1.621   .     S
Si1462 O1558   1.623   .     S
Si1462 O1562   1.617   .     S
Si1462 O1569   1.626   .     S
Si1463 O1558   1.622   .     S
Si1463 O1559   1.623   .     S
Si1463 O1597   1.627   .     S
Si1463 O1598   1.625   .     S
Si1464 O1559   1.622   .     S
Si1464 O1560   1.617   .     S
Si1464 O1594   1.626   .     S
Si1464 O1595   1.623   .     S
Si1465 O1560   1.626   .     S
Si1465 O1561   1.623   .     S
Si1465 O1570   1.625   .     S
Si1466 O1561   1.620   .     S
Si1466 O1562   1.622   .     S
Si1466 O1574   1.622   .     S
Si1466 O1575   1.627   .     S
Si1467 O1563   1.620   .     S
Si1467 O1573   1.630   .     S
Si1467 O1688   1.629   .     S
Si1467 O1733   1.621   .     S
Si1468 O1563   1.619   .     S
Si1468 O1564   1.624   .     S
Si1468 O1568   1.623   .     S
Si1468 O1569   1.622   .     S
Si1469 O1564   1.626   .     S
Si1469 O1565   1.629   .     S
Si1469 O1596   1.621   .     S
Si1469 O1735   1.624   .     S
Si1470 O1565   1.635   .     S
Si1470 O1566   1.618   .     S
Si1470 O1593   1.619   .     S
Si1470 O1736   1.625   .     S
Si1471 O1566   1.624   .     S
Si1471 O1567   1.628   .     S
Si1471 O1570   1.620   .     S
Si1472 O1567   1.626   .     S
Si1472 O1568   1.628   .     S
Si1472 O1576   1.629   .     S
Si1472 O1734   1.623   .     S
Si1473 O1579   1.623   .     S
Si1473 O1593   1.625   .     S
Si1473 O1594   1.629   .     S
Si1473 O1665   1.614   .     S
Si1474 O1579   1.618   .     S
Si1474 O1580   1.628   .     S
Si1474 O1584   1.622   .     S
Si1474 O1591   1.621   .     S
Si1475 O1575   1.624   .     S
Si1475 O1576   1.629   .     S
Si1475 O1581   1.629   .     S
Si1475 O5096   1.623   1_554 S
Si1476 O1572   1.622   .     S
Si1476 O1573   1.626   .     S
Si1476 O1581   1.620   .     S
Si1476 O5098   1.621   1_554 S
Si1477 O1582   1.624   .     S
Si1477 O1583   1.618   .     S
Si1477 O1592   1.618   .     S
Si1477 O1599   1.627   .     S
Si1478 O1583   1.625   .     S
Si1478 O1584   1.620   .     S
Si1478 O1596   1.624   .     S
Si1478 O1597   1.624   .     S
Si1479 O1585   1.622   .     S
Si1479 O1595   1.627   .     S
Si1479 O1666   1.629   .     S
Si1479 O1449   1.622   1_565 S
Si1480 O1585   1.617   .     S
Si1480 O1586   1.622   .     S
Si1480 O1590   1.626   .     S
Si1480 O1591   1.622   .     S
Si1481 O1574   1.621   .     S
Si1481 O1587   1.634   .     S
Si1481 O1451   1.622   1_565 S
Si1481 O5102   1.624   1_554 S
Si1482 O1571   1.624   .     S
Si1482 O1587   1.632   .     S
Si1482 O1452   1.625   1_565 S
Si1482 O5104   1.621   1_554 S
Si1483 O1588   1.621   .     S
Si1483 O1589   1.626   .     S
Si1483 O1592   1.627   .     S
Si1483 O1600   1.624   .     S
Si1484 O1589   1.628   .     S
Si1484 O1590   1.626   .     S
Si1484 O1598   1.626   .     S
Si1484 O1450   1.622   1_565 S
Si1485 O1601   1.619   .     S
Si1485 O1615   1.630   .     S
Si1485 O1616   1.627   .     S
Si1485 O1731   1.621   .     S
Si1486 O1601   1.622   .     S
Si1486 O1602   1.628   .     S
Si1486 O1606   1.620   .     S
Si1486 O1613   1.623   .     S
Si1487 O1602   1.625   .     S
Si1487 O1603   1.625   .     S
Si1487 O1641   1.625   .     S
Si1487 O1642   1.630   .     S
Si1488 O1603   1.621   .     S
Si1488 O1604   1.619   .     S
Si1488 O1638   1.623   .     S
Si1488 O1639   1.625   .     S
Si1489 O1604   1.627   .     S
Si1489 O1605   1.623   .     S
Si1489 O1614   1.625   .     S
Si1489 O449    1.626   1_655 S
Si1490 O1605   1.623   .     S
Si1490 O1606   1.622   .     S
Si1490 O1618   1.624   .     S
Si1490 O1619   1.627   .     S
Si1491 O1607   1.622   .     S
Si1491 O1617   1.626   .     S
Si1491 O1732   1.631   .     S
Si1491 O1741   1.625   .     S
Si1492 O1607   1.621   .     S
Si1492 O1608   1.622   .     S
Si1492 O1612   1.626   .     S
Si1492 O1613   1.626   .     S
Si1493 O1608   1.628   .     S
Si1493 O1609   1.634   .     S
Si1493 O1640   1.624   .     S
Si1493 O1743   1.623   .     S
Si1494 O1609   1.632   .     S
Si1494 O1610   1.621   .     S
Si1494 O1637   1.624   .     S
Si1494 O1744   1.623   .     S
Si1495 O1610   1.622   .     S
Si1495 O1611   1.628   .     S
Si1495 O1614   1.624   .     S
Si1495 O450    1.626   1_655 S
Si1496 O1611   1.630   .     S
Si1496 O1612   1.629   .     S
Si1496 O1620   1.626   .     S
Si1496 O1742   1.620   .     S
Si1497 O1623   1.621   .     S
Si1497 O1637   1.624   .     S
Si1497 O1638   1.626   .     S
Si1497 O1709   1.623   .     S
Si1498 O1623   1.620   .     S
Si1498 O1624   1.623   .     S
Si1498 O1628   1.621   .     S
Si1498 O1635   1.624   .     S
Si1499 O1619   1.627   .     S
Si1499 O1620   1.623   .     S
Si1499 O1625   1.626   .     S
Si1499 O3382   1.622   .     S
Si1500 O1616   1.628   .     S
Si1500 O1617   1.621   .     S
Si1500 O1625   1.621   .     S
Si1500 O3384   1.619   .     S
Si1501 O1626   1.626   .     S
Si1501 O1627   1.621   .     S
Si1501 O1636   1.626   .     S
Si1501 O1643   1.625   .     S
Si1502 O1627   1.623   .     S
Si1502 O1628   1.624   .     S
Si1502 O1640   1.623   .     S
Si1502 O1641   1.627   .     S
Si1503 O1629   1.623   .     S
Si1503 O1639   1.629   .     S
Si1503 O1710   1.631   .     S
Si1503 O1745   1.619   .     S
Si1504 O1629   1.619   .     S
Si1504 O1630   1.623   .     S
Si1504 O1634   1.628   .     S
Si1504 O1635   1.621   .     S
Si1505 O1618   1.621   .     S
Si1505 O1631   1.636   .     S
Si1505 O1747   1.621   .     S
Si1505 O3388   1.624   .     S
Si1506 O1615   1.622   .     S
Si1506 O1631   1.628   .     S
Si1506 O1748   1.632   .     S
Si1506 O3390   1.620   .     S
Si1507 O1632   1.626   .     S
Si1507 O1633   1.626   .     S
Si1507 O1636   1.619   .     S
Si1507 O1644   1.627   .     S
Si1508 O1633   1.629   .     S
Si1508 O1634   1.628   .     S
Si1508 O1642   1.629   .     S
Si1508 O1746   1.622   .     S
Si1509 O1599   1.606   .     S
Si1509 O1645   1.695   .     S
Si1509 O1659   1.616   .     S
Si1509 O1660   1.598   .     S
Si1510 O1646   1.593   .     S
Si1510 O1647   1.640   .     S
Si1510 O1685   1.636   .     S
Si1510 O1686   1.638   .     S
Si1511 O1647   1.622   .     S
Si1511 O1648   1.618   .     S
Si1511 O1682   1.629   .     S
Si1511 O1683   1.629   .     S
Si1512 O1648   1.627   .     S
Si1512 O1649   1.616   .     S
Si1512 O1658   1.627   .     S
Si1512 O493    1.623   1_655 S
Si1513 O1649   1.631   .     S
Si1513 O1650   1.592   .     S
Si1513 O1662   1.635   .     S
Si1513 O1663   1.636   .     S
Si1514 O1600   1.634   .     S
Si1514 O1651   1.619   .     S
Si1514 O1661   1.634   .     S
Si1514 O1453   1.626   1_565 S
Si1515 O1651   1.634   .     S
Si1515 O1652   1.627   .     S
Si1515 O1656   1.638   .     S
Si1515 O1657   1.601   .     S
Si1516 O1652   1.617   .     S
Si1516 O1653   1.634   .     S
Si1516 O1684   1.622   .     S
Si1516 O1455   1.630   1_565 S
Si1517 O1653   1.630   .     S
Si1517 O1654   1.621   .     S
Si1517 O1681   1.621   .     S
Si1517 O1456   1.627   1_565 S
Si1518 O1654   1.625   .     S
Si1518 O1655   1.623   .     S
Si1518 O1658   1.621   .     S
Si1518 O494    1.630   1_655 S
Si1519 O1655   1.628   .     S
Si1519 O1656   1.622   .     S
Si1519 O1664   1.625   .     S
Si1519 O1454   1.626   1_565 S
Si1520 O1577   1.622   .     S
Si1520 O1667   1.618   .     S
Si1520 O1681   1.623   .     S
Si1520 O1682   1.629   .     S
Si1521 O1667   1.618   .     S
Si1521 O1668   1.626   .     S
Si1521 O1672   1.618   .     S
Si1521 O1679   1.628   .     S
Si1522 O1663   1.619   .     S
Si1522 O1664   1.623   .     S
Si1522 O1669   1.632   .     S
Si1522 O3426   1.627   .     S
Si1523 O1660   1.636   .     S
Si1523 O1661   1.622   .     S
Si1523 O1669   1.613   .     S
Si1523 O3428   1.619   .     S
Si1524 O1670   1.627   .     S
Si1524 O1671   1.619   .     S
Si1524 O1680   1.630   .     S
Si1524 O1687   1.625   .     S
Si1525 O1671   1.628   .     S
Si1525 O1672   1.621   .     S
Si1525 O1684   1.623   .     S
Si1525 O1685   1.625   .     S
Si1526 O1578   1.631   .     S
Si1526 O1673   1.618   .     S
Si1526 O1683   1.626   .     S
Si1526 O1745   1.622   .     S
Si1527 O1673   1.616   .     S
Si1527 O1674   1.617   .     S
Si1527 O1678   1.630   .     S
Si1527 O1679   1.621   .     S
Si1528 O1662   1.611   .     S
Si1528 O1675   1.643   .     S
Si1528 O1747   1.624   .     S
Si1528 O3432   1.620   .     S
Si1529 O1659   1.632   .     S
Si1529 O1675   1.625   .     S
Si1529 O1748   1.626   .     S
Si1529 O3434   1.618   .     S
Si1530 O1676   1.628   .     S
Si1530 O1677   1.625   .     S
Si1530 O1680   1.623   .     S
Si1530 O1688   1.627   .     S
Si1531 O1677   1.633   .     S
Si1531 O1678   1.627   .     S
Si1531 O1686   1.617   .     S
Si1531 O1746   1.624   .     S
Si1532 O1643   1.622   .     S
Si1532 O1689   1.626   .     S
Si1532 O1703   1.625   .     S
Si1532 O1704   1.629   .     S
Si1533 O1689   1.624   .     S
Si1533 O1690   1.625   .     S
Si1533 O1694   1.619   .     S
Si1533 O1701   1.625   .     S
Si1534 O1690   1.623   .     S
Si1534 O1691   1.626   .     S
Si1534 O1729   1.626   .     S
Si1534 O1730   1.625   .     S
Si1535 O1691   1.624   .     S
Si1535 O1692   1.620   .     S
Si1535 O1726   1.623   .     S
Si1535 O1727   1.626   .     S
Si1536 O1692   1.628   .     S
Si1536 O1693   1.623   .     S
Si1536 O1702   1.628   .     S
Si1537 O1693   1.622   .     S
Si1537 O1694   1.622   .     S
Si1537 O1706   1.623   .     S
Si1537 O1707   1.628   .     S
Si1538 O1644   1.629   .     S
Si1538 O1695   1.623   .     S
Si1538 O1705   1.626   .     S
Si1538 O1733   1.622   .     S
Si1539 O1695   1.621   .     S
Si1539 O1696   1.618   .     S
Si1539 O1700   1.625   .     S
Si1539 O1701   1.623   .     S
Si1540 O1696   1.622   .     S
Si1540 O1697   1.630   .     S
Si1540 O1728   1.621   .     S
Si1540 O1735   1.624   .     S
Si1541 O1697   1.633   .     S
Si1541 O1698   1.623   .     S
Si1541 O1725   1.623   .     S
Si1541 O1736   1.623   .     S
Si1542 O1698   1.626   .     S
Si1542 O1699   1.629   .     S
Si1542 O1702   1.625   .     S
Si1543 O1699   1.628   .     S
Si1543 O1700   1.630   .     S
Si1543 O1708   1.626   .     S
Si1543 O1734   1.623   .     S
Si1544 O1621   1.623   .     S
Si1544 O1711   1.625   .     S
Si1544 O1725   1.628   .     S
Si1544 O1726   1.625   .     S
Si1545 O1711   1.623   .     S
Si1545 O1712   1.624   .     S
Si1545 O1716   1.622   .     S
Si1545 O1723   1.623   .     S
Si1546 O1707   1.626   .     S
Si1546 O1708   1.626   .     S
Si1546 O1713   1.628   .     S
Si1546 O5228   1.623   1_554 S
Si1547 O1704   1.623   .     S
Si1547 O1705   1.625   .     S
Si1547 O1713   1.623   .     S
Si1547 O5230   1.622   1_554 S
Si1548 O1714   1.627   .     S
Si1548 O1715   1.622   .     S
Si1548 O1724   1.626   .     S
Si1548 O1731   1.623   .     S
Si1549 O1715   1.621   .     S
Si1549 O1716   1.622   .     S
Si1549 O1728   1.625   .     S
Si1549 O1729   1.625   .     S
Si1550 O1622   1.628   .     S
Si1550 O1717   1.622   .     S
Si1550 O1727   1.632   .     S
Si1550 O1737   1.620   .     S
Si1551 O1717   1.617   .     S
Si1551 O1718   1.619   .     S
Si1551 O1722   1.627   .     S
Si1551 O1723   1.623   .     S
Si1552 O1706   1.622   .     S
Si1552 O1719   1.632   .     S
Si1552 O1739   1.623   .     S
Si1552 O5234   1.621   1_554 S
Si1553 O1703   1.622   .     S
Si1553 O1719   1.631   .     S
Si1553 O1740   1.625   .     S
Si1553 O5236   1.625   1_554 S
Si1554 O1720   1.627   .     S
Si1554 O1721   1.624   .     S
Si1554 O1724   1.625   .     S
Si1554 O1732   1.625   .     S
Si1555 O1721   1.627   .     S
Si1555 O1722   1.629   .     S
Si1555 O1730   1.626   .     S
Si1555 O1738   1.621   .     S
Al1556 O1645   1.892   .     S
Al1556 O1646   1.714   .     S
Al1556 O1650   1.703   .     S
Al1556 O1657   1.715   .     S
O1577  Si293   1.620   1_655 S
O1578  Si299   1.625   1_655 S
O1580  Si3233  1.623   .     S
O1582  Si3234  1.621   .     S
O1586  Si3239  1.624   .     S
O1588  Si3240  1.621   .     S
O1624  Si5015  1.622   1_554 S
O1626  Si5016  1.619   1_554 S
O1630  Si5021  1.624   1_554 S
O1632  Si5022  1.620   1_554 S
O1645  H1749   1.007   .     S
O1668  Si5038  1.627   1_554 S
O1670  Si5039  1.619   1_554 S
O1674  Si5044  1.620   1_554 S
O1676  Si5045  1.618   1_554 S
O1709  Si364   1.623   1_655 S
O1710  Si370   1.626   1_655 S
O1712  Si3304  1.623   .     S
O1714  Si3305  1.622   .     S
O1718  Si3310  1.621   .     S
O1720  Si3311  1.625   .     S
H1750  C1756   1.090   .     S
H1751  C1757   1.087   .     S
H1752  C1754   1.090   .     S
H1753  C1755   1.086   .     S
C1754  C1755   1.370   .     D
C1754  C1756   1.431   .     S
C1755  S1758   1.726   .     S
C1756  C1757   1.370   .     D
C1757  S1758   1.729   .     S
Si1759 O1855   1.621   .     S
Si1759 O1869   1.626   .     S
Si1759 O1870   1.629   .     S
Si1759 O1985   1.621   .     S
Si1760 O1855   1.621   .     S
Si1760 O1856   1.623   .     S
Si1760 O1860   1.617   .     S
Si1760 O1867   1.626   .     S
Si1761 O1856   1.622   .     S
Si1761 O1857   1.623   .     S
Si1761 O1895   1.627   .     S
Si1761 O1896   1.625   .     S
Si1762 O1857   1.622   .     S
Si1762 O1858   1.617   .     S
Si1762 O1892   1.626   .     S
Si1762 O1893   1.623   .     S
Si1763 O1858   1.626   .     S
Si1763 O1859   1.623   .     S
Si1763 O1868   1.625   .     S
Si1763 O3047   1.620   1_455 S
Si1764 O1859   1.620   .     S
Si1764 O1860   1.622   .     S
Si1764 O1872   1.622   .     S
Si1764 O1873   1.627   .     S
Si1765 O1861   1.620   .     S
Si1765 O1871   1.630   .     S
Si1765 O1986   1.629   .     S
Si1765 O2031   1.621   .     S
Si1766 O1861   1.619   .     S
Si1766 O1862   1.624   .     S
Si1766 O1866   1.623   .     S
Si1766 O1867   1.622   .     S
Si1767 O1862   1.626   .     S
Si1767 O1863   1.629   .     S
Si1767 O1894   1.621   .     S
Si1767 O2033   1.624   .     S
Si1768 O1863   1.635   .     S
Si1768 O1864   1.618   .     S
Si1768 O1891   1.619   .     S
Si1768 O2034   1.625   .     S
Si1769 O1864   1.624   .     S
Si1769 O1865   1.628   .     S
Si1769 O1868   1.620   .     S
Si1769 O3048   1.625   1_455 S
Si1770 O1865   1.626   .     S
Si1770 O1866   1.628   .     S
Si1770 O1874   1.629   .     S
Si1770 O2032   1.623   .     S
Si1771 O1877   1.623   .     S
Si1771 O1891   1.625   .     S
Si1771 O1892   1.629   .     S
Si1771 O1963   1.614   .     S
Si1772 O1877   1.618   .     S
Si1772 O1878   1.628   .     S
Si1772 O1882   1.622   .     S
Si1772 O1889   1.621   .     S
Si1773 O1873   1.624   .     S
Si1773 O1874   1.629   .     S
Si1773 O1879   1.629   .     S
Si1774 O1870   1.622   .     S
Si1774 O1871   1.626   .     S
Si1774 O1879   1.620   .     S
Si1775 O1880   1.624   .     S
Si1775 O1881   1.618   .     S
Si1775 O1890   1.618   .     S
Si1775 O1897   1.627   .     S
Si1776 O1881   1.625   .     S
Si1776 O1882   1.620   .     S
Si1776 O1894   1.624   .     S
Si1776 O1895   1.624   .     S
Si1777 O1883   1.622   .     S
Si1777 O1893   1.627   .     S
Si1777 O1964   1.629   .     S
Si1777 O2323   1.622   .     S
Si1778 O1883   1.617   .     S
Si1778 O1884   1.622   .     S
Si1778 O1888   1.626   .     S
Si1778 O1889   1.622   .     S
Si1779 O1872   1.621   .     S
Si1779 O1885   1.634   .     S
Si1779 O2325   1.622   .     S
Si1780 O1869   1.624   .     S
Si1780 O1885   1.632   .     S
Si1780 O2326   1.625   .     S
Si1781 O1886   1.621   .     S
Si1781 O1887   1.626   .     S
Si1781 O1890   1.627   .     S
Si1781 O1898   1.624   .     S
Si1782 O1887   1.628   .     S
Si1782 O1888   1.626   .     S
Si1782 O1896   1.626   .     S
Si1782 O2324   1.622   .     S
Si1783 O1899   1.619   .     S
Si1783 O1913   1.630   .     S
Si1783 O1914   1.627   .     S
Si1783 O2029   1.621   .     S
Si1784 O1899   1.622   .     S
Si1784 O1900   1.628   .     S
Si1784 O1904   1.620   .     S
Si1784 O1911   1.623   .     S
Si1785 O1900   1.625   .     S
Si1785 O1901   1.625   .     S
Si1785 O1939   1.625   .     S
Si1785 O1940   1.630   .     S
Si1786 O1901   1.621   .     S
Si1786 O1902   1.619   .     S
Si1786 O1936   1.623   .     S
Si1786 O1937   1.625   .     S
Si1787 O1902   1.627   .     S
Si1787 O1903   1.623   .     S
Si1787 O1912   1.625   .     S
Si1787 O2505   1.626   .     S
Si1788 O1903   1.623   .     S
Si1788 O1904   1.622   .     S
Si1788 O1916   1.624   .     S
Si1788 O1917   1.627   .     S
Si1789 O1905   1.622   .     S
Si1789 O1915   1.626   .     S
Si1789 O2030   1.631   .     S
Si1789 O2039   1.625   .     S
Si1790 O1905   1.621   .     S
Si1790 O1906   1.622   .     S
Si1790 O1910   1.626   .     S
Si1790 O1911   1.626   .     S
Si1791 O1906   1.628   .     S
Si1791 O1907   1.634   .     S
Si1791 O1938   1.624   .     S
Si1791 O2041   1.623   .     S
Si1792 O1907   1.632   .     S
Si1792 O1908   1.621   .     S
Si1792 O1935   1.624   .     S
Si1792 O2042   1.623   .     S
Si1793 O1908   1.622   .     S
Si1793 O1909   1.628   .     S
Si1793 O1912   1.624   .     S
Si1793 O2506   1.626   .     S
Si1794 O1909   1.630   .     S
Si1794 O1910   1.629   .     S
Si1794 O1918   1.626   .     S
Si1794 O2040   1.620   .     S
Si1795 O1921   1.621   .     S
Si1795 O1935   1.624   .     S
Si1795 O1936   1.626   .     S
Si1795 O2007   1.623   .     S
Si1796 O1921   1.620   .     S
Si1796 O1922   1.623   .     S
Si1796 O1926   1.621   .     S
Si1796 O1933   1.624   .     S
Si1797 O1917   1.627   .     S
Si1797 O1918   1.623   .     S
Si1797 O1923   1.626   .     S
Si1797 O3680   1.622   .     S
Si1798 O1914   1.628   .     S
Si1798 O1915   1.621   .     S
Si1798 O1923   1.621   .     S
Si1798 O3682   1.619   .     S
Si1799 O1924   1.626   .     S
Si1799 O1925   1.621   .     S
Si1799 O1934   1.626   .     S
Si1799 O1941   1.625   .     S
Si1800 O1925   1.623   .     S
Si1800 O1926   1.624   .     S
Si1800 O1938   1.623   .     S
Si1800 O1939   1.627   .     S
Si1801 O1927   1.623   .     S
Si1801 O1937   1.629   .     S
Si1801 O2008   1.631   .     S
Si1801 O2043   1.619   .     S
Si1802 O1927   1.619   .     S
Si1802 O1928   1.623   .     S
Si1802 O1932   1.628   .     S
Si1802 O1933   1.621   .     S
Si1803 O1916   1.621   .     S
Si1803 O1929   1.636   .     S
Si1803 O2045   1.621   .     S
Si1803 O3686   1.624   .     S
Si1804 O1913   1.622   .     S
Si1804 O1929   1.628   .     S
Si1804 O2046   1.632   .     S
Si1804 O3688   1.620   .     S
Si1805 O1930   1.626   .     S
Si1805 O1931   1.626   .     S
Si1805 O1934   1.619   .     S
Si1805 O1942   1.627   .     S
Si1806 O1931   1.629   .     S
Si1806 O1932   1.628   .     S
Si1806 O1940   1.629   .     S
Si1806 O2044   1.622   .     S
Si1807 O1897   1.606   .     S
Si1807 O1943   1.695   .     S
Si1807 O1957   1.616   .     S
Si1807 O1958   1.598   .     S
Si1808 O1944   1.593   .     S
Si1808 O1945   1.640   .     S
Si1808 O1983   1.636   .     S
Si1808 O1984   1.638   .     S
Si1809 O1945   1.622   .     S
Si1809 O1946   1.618   .     S
Si1809 O1980   1.629   .     S
Si1809 O1981   1.629   .     S
Si1810 O1946   1.627   .     S
Si1810 O1947   1.616   .     S
Si1810 O1956   1.627   .     S
Si1810 O2549   1.623   .     S
Si1811 O1947   1.631   .     S
Si1811 O1948   1.592   .     S
Si1811 O1960   1.635   .     S
Si1811 O1961   1.636   .     S
Si1812 O1898   1.634   .     S
Si1812 O1949   1.619   .     S
Si1812 O1959   1.634   .     S
Si1812 O2327   1.626   .     S
Si1813 O1949   1.634   .     S
Si1813 O1950   1.627   .     S
Si1813 O1954   1.638   .     S
Si1813 O1955   1.601   .     S
Si1814 O1950   1.617   .     S
Si1814 O1951   1.634   .     S
Si1814 O1982   1.622   .     S
Si1814 O2329   1.630   .     S
Si1815 O1951   1.630   .     S
Si1815 O1952   1.621   .     S
Si1815 O1979   1.621   .     S
Si1815 O2330   1.627   .     S
Si1816 O1952   1.625   .     S
Si1816 O1953   1.623   .     S
Si1816 O1956   1.621   .     S
Si1816 O2550   1.630   .     S
Si1817 O1953   1.628   .     S
Si1817 O1954   1.622   .     S
Si1817 O1962   1.625   .     S
Si1817 O2328   1.626   .     S
Si1818 O1875   1.622   .     S
Si1818 O1965   1.618   .     S
Si1818 O1979   1.623   .     S
Si1818 O1980   1.629   .     S
Si1819 O1965   1.618   .     S
Si1819 O1966   1.626   .     S
Si1819 O1970   1.618   .     S
Si1819 O1977   1.628   .     S
Si1820 O1961   1.619   .     S
Si1820 O1962   1.623   .     S
Si1820 O1967   1.632   .     S
Si1820 O3724   1.627   .     S
Si1821 O1958   1.636   .     S
Si1821 O1959   1.622   .     S
Si1821 O1967   1.613   .     S
Si1821 O3726   1.619   .     S
Si1822 O1968   1.627   .     S
Si1822 O1969   1.619   .     S
Si1822 O1978   1.630   .     S
Si1822 O1985   1.625   .     S
Si1823 O1969   1.628   .     S
Si1823 O1970   1.621   .     S
Si1823 O1982   1.623   .     S
Si1823 O1983   1.625   .     S
Si1824 O1876   1.631   .     S
Si1824 O1971   1.618   .     S
Si1824 O1981   1.626   .     S
Si1824 O2043   1.622   .     S
Si1825 O1971   1.616   .     S
Si1825 O1972   1.617   .     S
Si1825 O1976   1.630   .     S
Si1825 O1977   1.621   .     S
Si1826 O1960   1.611   .     S
Si1826 O1973   1.643   .     S
Si1826 O2045   1.624   .     S
Si1826 O3730   1.620   .     S
Si1827 O1957   1.632   .     S
Si1827 O1973   1.625   .     S
Si1827 O2046   1.626   .     S
Si1827 O3732   1.618   .     S
Si1828 O1974   1.628   .     S
Si1828 O1975   1.625   .     S
Si1828 O1978   1.623   .     S
Si1828 O1986   1.627   .     S
Si1829 O1975   1.633   .     S
Si1829 O1976   1.627   .     S
Si1829 O1984   1.617   .     S
Si1829 O2044   1.624   .     S
Si1830 O1941   1.622   .     S
Si1830 O1987   1.626   .     S
Si1830 O2001   1.625   .     S
Si1830 O2002   1.629   .     S
Si1831 O1987   1.624   .     S
Si1831 O1988   1.625   .     S
Si1831 O1992   1.619   .     S
Si1831 O1999   1.625   .     S
Si1832 O1988   1.623   .     S
Si1832 O1989   1.626   .     S
Si1832 O2027   1.626   .     S
Si1832 O2028   1.625   .     S
Si1833 O1989   1.624   .     S
Si1833 O1990   1.620   .     S
Si1833 O2024   1.623   .     S
Si1833 O2025   1.626   .     S
Si1834 O1990   1.628   .     S
Si1834 O1991   1.623   .     S
Si1834 O2000   1.628   .     S
Si1834 O3179   1.623   1_455 S
Si1835 O1991   1.622   .     S
Si1835 O1992   1.622   .     S
Si1835 O2004   1.623   .     S
Si1835 O2005   1.628   .     S
Si1836 O1942   1.629   .     S
Si1836 O1993   1.623   .     S
Si1836 O2003   1.626   .     S
Si1836 O2031   1.622   .     S
Si1837 O1993   1.621   .     S
Si1837 O1994   1.618   .     S
Si1837 O1998   1.625   .     S
Si1837 O1999   1.623   .     S
Si1838 O1994   1.622   .     S
Si1838 O1995   1.630   .     S
Si1838 O2026   1.621   .     S
Si1838 O2033   1.624   .     S
Si1839 O1995   1.633   .     S
Si1839 O1996   1.623   .     S
Si1839 O2023   1.623   .     S
Si1839 O2034   1.623   .     S
Si1840 O1996   1.626   .     S
Si1840 O1997   1.629   .     S
Si1840 O2000   1.625   .     S
Si1840 O3180   1.626   1_455 S
Si1841 O1997   1.628   .     S
Si1841 O1998   1.630   .     S
Si1841 O2006   1.626   .     S
Si1841 O2032   1.623   .     S
Si1842 O1919   1.623   .     S
Si1842 O2009   1.625   .     S
Si1842 O2023   1.628   .     S
Si1842 O2024   1.625   .     S
Si1843 O2009   1.623   .     S
Si1843 O2010   1.624   .     S
Si1843 O2014   1.622   .     S
Si1843 O2021   1.623   .     S
Si1844 O2005   1.626   .     S
Si1844 O2006   1.626   .     S
Si1844 O2011   1.628   .     S
Si1845 O2002   1.623   .     S
Si1845 O2003   1.625   .     S
Si1845 O2011   1.623   .     S
Si1846 O2012   1.627   .     S
Si1846 O2013   1.622   .     S
Si1846 O2022   1.626   .     S
Si1846 O2029   1.623   .     S
Si1847 O2013   1.621   .     S
Si1847 O2014   1.622   .     S
Si1847 O2026   1.625   .     S
Si1847 O2027   1.625   .     S
Si1848 O1920   1.628   .     S
Si1848 O2015   1.622   .     S
Si1848 O2025   1.632   .     S
Si1848 O2035   1.620   .     S
Si1849 O2015   1.617   .     S
Si1849 O2016   1.619   .     S
Si1849 O2020   1.627   .     S
Si1849 O2021   1.623   .     S
Si1850 O2004   1.622   .     S
Si1850 O2017   1.632   .     S
Si1850 O2037   1.623   .     S
Si1851 O2001   1.622   .     S
Si1851 O2017   1.631   .     S
Si1851 O2038   1.625   .     S
Si1852 O2018   1.627   .     S
Si1852 O2019   1.624   .     S
Si1852 O2022   1.625   .     S
Si1852 O2030   1.625   .     S
Si1853 O2019   1.627   .     S
Si1853 O2020   1.629   .     S
Si1853 O2028   1.626   .     S
Si1853 O2036   1.621   .     S
Al1854 O1943   1.892   .     S
Al1854 O1944   1.714   .     S
Al1854 O1948   1.703   .     S
Al1854 O1955   1.715   .     S
O1875  Si2349  1.620   .     S
O1876  Si2355  1.625   .     S
O1878  Si3531  1.623   .     S
O1880  Si3532  1.621   .     S
O1884  Si3537  1.624   .     S
O1886  Si3538  1.621   .     S
O1919  Si2959  1.626   1_455 S
O1920  Si2965  1.626   1_455 S
O1963  Si2982  1.623   1_455 S
O1964  Si2988  1.630   1_455 S
O2007  Si2420  1.623   .     S
O2008  Si2426  1.626   .     S
O2010  Si3602  1.623   .     S
O2012  Si3603  1.622   .     S
O2016  Si3608  1.621   .     S
O2018  Si3609  1.625   .     S
O2035  Si2065  1.622   1_545 S
O2036  Si2070  1.622   1_545 S
O2037  Si2067  1.622   1_545 S
O2038  Si2068  1.625   1_545 S
O2039  Si2100  1.626   1_545 S
O2040  Si2105  1.626   1_545 S
O2041  Si2102  1.630   1_545 S
O2042  Si2103  1.627   1_545 S
Si2047 O2143   1.621   .     S
Si2047 O2157   1.626   .     S
Si2047 O2158   1.629   .     S
Si2047 O2273   1.621   .     S
Si2048 O2143   1.621   .     S
Si2048 O2144   1.623   .     S
Si2048 O2148   1.617   .     S
Si2048 O2155   1.626   .     S
Si2049 O2144   1.622   .     S
Si2049 O2145   1.623   .     S
Si2049 O2183   1.627   .     S
Si2049 O2184   1.625   .     S
Si2050 O2145   1.622   .     S
Si2050 O2146   1.617   .     S
Si2050 O2180   1.626   .     S
Si2050 O2181   1.623   .     S
Si2051 O2146   1.626   .     S
Si2051 O2147   1.623   .     S
Si2051 O2156   1.625   .     S
Si2051 O3335   1.620   1_455 S
Si2052 O2147   1.620   .     S
Si2052 O2148   1.622   .     S
Si2052 O2160   1.622   .     S
Si2052 O2161   1.627   .     S
Si2053 O2149   1.620   .     S
Si2053 O2159   1.630   .     S
Si2053 O2274   1.629   .     S
Si2053 O2319   1.621   .     S
Si2054 O2149   1.619   .     S
Si2054 O2150   1.624   .     S
Si2054 O2154   1.623   .     S
Si2054 O2155   1.622   .     S
Si2055 O2150   1.626   .     S
Si2055 O2151   1.629   .     S
Si2055 O2182   1.621   .     S
Si2055 O2321   1.624   .     S
Si2056 O2151   1.635   .     S
Si2056 O2152   1.618   .     S
Si2056 O2179   1.619   .     S
Si2056 O2322   1.625   .     S
Si2057 O2152   1.624   .     S
Si2057 O2153   1.628   .     S
Si2057 O2156   1.620   .     S
Si2057 O3336   1.625   1_455 S
Si2058 O2153   1.626   .     S
Si2058 O2154   1.628   .     S
Si2058 O2162   1.629   .     S
Si2058 O2320   1.623   .     S
Si2059 O2165   1.623   .     S
Si2059 O2179   1.625   .     S
Si2059 O2180   1.629   .     S
Si2059 O2251   1.614   .     S
Si2060 O2165   1.618   .     S
Si2060 O2166   1.628   .     S
Si2060 O2170   1.622   .     S
Si2060 O2177   1.621   .     S
Si2061 O2161   1.624   .     S
Si2061 O2162   1.629   .     S
Si2061 O2167   1.629   .     S
Si2062 O2158   1.622   .     S
Si2062 O2159   1.626   .     S
Si2062 O2167   1.620   .     S
Si2063 O2168   1.624   .     S
Si2063 O2169   1.618   .     S
Si2063 O2178   1.618   .     S
Si2063 O2185   1.627   .     S
Si2064 O2169   1.625   .     S
Si2064 O2170   1.620   .     S
Si2064 O2182   1.624   .     S
Si2064 O2183   1.624   .     S
Si2065 O2171   1.622   .     S
Si2065 O2181   1.627   .     S
Si2065 O2252   1.629   .     S
Si2065 O2035   1.622   1_565 S
Si2066 O2171   1.617   .     S
Si2066 O2172   1.622   .     S
Si2066 O2176   1.626   .     S
Si2066 O2177   1.622   .     S
Si2067 O2160   1.621   .     S
Si2067 O2173   1.634   .     S
Si2067 O2037   1.622   1_565 S
Si2068 O2157   1.624   .     S
Si2068 O2173   1.632   .     S
Si2068 O2038   1.625   1_565 S
Si2069 O2174   1.621   .     S
Si2069 O2175   1.626   .     S
Si2069 O2178   1.627   .     S
Si2069 O2186   1.624   .     S
Si2070 O2175   1.628   .     S
Si2070 O2176   1.626   .     S
Si2070 O2184   1.626   .     S
Si2070 O2036   1.622   1_565 S
Si2071 O2187   1.619   .     S
Si2071 O2201   1.630   .     S
Si2071 O2202   1.627   .     S
Si2071 O2317   1.621   .     S
Si2072 O2187   1.622   .     S
Si2072 O2188   1.628   .     S
Si2072 O2192   1.620   .     S
Si2072 O2199   1.623   .     S
Si2073 O2188   1.625   .     S
Si2073 O2189   1.625   .     S
Si2073 O2227   1.625   .     S
Si2073 O2228   1.630   .     S
Si2074 O2189   1.621   .     S
Si2074 O2190   1.619   .     S
Si2074 O2224   1.623   .     S
Si2074 O2225   1.625   .     S
Si2075 O2190   1.627   .     S
Si2075 O2191   1.623   .     S
Si2075 O2200   1.625   .     S
Si2075 O2793   1.626   .     S
Si2076 O2191   1.623   .     S
Si2076 O2192   1.622   .     S
Si2076 O2204   1.624   .     S
Si2076 O2205   1.627   .     S
Si2077 O2193   1.622   .     S
Si2077 O2203   1.626   .     S
Si2077 O2318   1.631   .     S
Si2077 O2327   1.625   .     S
Si2078 O2193   1.621   .     S
Si2078 O2194   1.622   .     S
Si2078 O2198   1.626   .     S
Si2078 O2199   1.626   .     S
Si2079 O2194   1.628   .     S
Si2079 O2195   1.634   .     S
Si2079 O2226   1.624   .     S
Si2079 O2329   1.623   .     S
Si2080 O2195   1.632   .     S
Si2080 O2196   1.621   .     S
Si2080 O2223   1.624   .     S
Si2080 O2330   1.623   .     S
Si2081 O2196   1.622   .     S
Si2081 O2197   1.628   .     S
Si2081 O2200   1.624   .     S
Si2081 O2794   1.626   .     S
Si2082 O2197   1.630   .     S
Si2082 O2198   1.629   .     S
Si2082 O2206   1.626   .     S
Si2082 O2328   1.620   .     S
Si2083 O2209   1.621   .     S
Si2083 O2223   1.624   .     S
Si2083 O2224   1.626   .     S
Si2083 O2295   1.623   .     S
Si2084 O2209   1.620   .     S
Si2084 O2210   1.623   .     S
Si2084 O2214   1.621   .     S
Si2084 O2221   1.624   .     S
Si2085 O2205   1.627   .     S
Si2085 O2206   1.623   .     S
Si2085 O2211   1.626   .     S
Si2085 O3968   1.622   .     S
Si2086 O2202   1.628   .     S
Si2086 O2203   1.621   .     S
Si2086 O2211   1.621   .     S
Si2086 O3970   1.619   .     S
Si2087 O2212   1.626   .     S
Si2087 O2213   1.621   .     S
Si2087 O2222   1.626   .     S
Si2087 O2229   1.625   .     S
Si2088 O2213   1.623   .     S
Si2088 O2214   1.624   .     S
Si2088 O2226   1.623   .     S
Si2088 O2227   1.627   .     S
Si2089 O2215   1.623   .     S
Si2089 O2225   1.629   .     S
Si2089 O2296   1.631   .     S
Si2089 O2331   1.619   .     S
Si2090 O2215   1.619   .     S
Si2090 O2216   1.623   .     S
Si2090 O2220   1.628   .     S
Si2090 O2221   1.621   .     S
Si2091 O2204   1.621   .     S
Si2091 O2217   1.636   .     S
Si2091 O2333   1.621   .     S
Si2091 O3974   1.624   .     S
Si2092 O2201   1.622   .     S
Si2092 O2217   1.628   .     S
Si2092 O2334   1.632   .     S
Si2092 O3976   1.620   .     S
Si2093 O2218   1.626   .     S
Si2093 O2219   1.626   .     S
Si2093 O2222   1.619   .     S
Si2093 O2230   1.627   .     S
Si2094 O2219   1.629   .     S
Si2094 O2220   1.628   .     S
Si2094 O2228   1.629   .     S
Si2094 O2332   1.622   .     S
Si2095 O2185   1.606   .     S
Si2095 O2231   1.695   .     S
Si2095 O2245   1.616   .     S
Si2095 O2246   1.598   .     S
Si2096 O2232   1.593   .     S
Si2096 O2233   1.640   .     S
Si2096 O2271   1.636   .     S
Si2096 O2272   1.638   .     S
Si2097 O2233   1.622   .     S
Si2097 O2234   1.618   .     S
Si2097 O2268   1.629   .     S
Si2097 O2269   1.629   .     S
Si2098 O2234   1.627   .     S
Si2098 O2235   1.616   .     S
Si2098 O2244   1.627   .     S
Si2098 O2837   1.623   .     S
Si2099 O2235   1.631   .     S
Si2099 O2236   1.592   .     S
Si2099 O2248   1.635   .     S
Si2099 O2249   1.636   .     S
Si2100 O2186   1.634   .     S
Si2100 O2237   1.619   .     S
Si2100 O2247   1.634   .     S
Si2100 O2039   1.626   1_565 S
Si2101 O2237   1.634   .     S
Si2101 O2238   1.627   .     S
Si2101 O2242   1.638   .     S
Si2101 O2243   1.601   .     S
Si2102 O2238   1.617   .     S
Si2102 O2239   1.634   .     S
Si2102 O2270   1.622   .     S
Si2102 O2041   1.630   1_565 S
Si2103 O2239   1.630   .     S
Si2103 O2240   1.621   .     S
Si2103 O2267   1.621   .     S
Si2103 O2042   1.627   1_565 S
Si2104 O2240   1.625   .     S
Si2104 O2241   1.623   .     S
Si2104 O2244   1.621   .     S
Si2104 O2838   1.630   .     S
Si2105 O2241   1.628   .     S
Si2105 O2242   1.622   .     S
Si2105 O2250   1.625   .     S
Si2105 O2040   1.626   1_565 S
Si2106 O2163   1.622   .     S
Si2106 O2253   1.618   .     S
Si2106 O2267   1.623   .     S
Si2106 O2268   1.629   .     S
Si2107 O2253   1.618   .     S
Si2107 O2254   1.626   .     S
Si2107 O2258   1.618   .     S
Si2107 O2265   1.628   .     S
Si2108 O2249   1.619   .     S
Si2108 O2250   1.623   .     S
Si2108 O2255   1.632   .     S
Si2108 O4012   1.627   .     S
Si2109 O2246   1.636   .     S
Si2109 O2247   1.622   .     S
Si2109 O2255   1.613   .     S
Si2109 O4014   1.619   .     S
Si2110 O2256   1.627   .     S
Si2110 O2257   1.619   .     S
Si2110 O2266   1.630   .     S
Si2110 O2273   1.625   .     S
Si2111 O2257   1.628   .     S
Si2111 O2258   1.621   .     S
Si2111 O2270   1.623   .     S
Si2111 O2271   1.625   .     S
Si2112 O2164   1.631   .     S
Si2112 O2259   1.618   .     S
Si2112 O2269   1.626   .     S
Si2112 O2331   1.622   .     S
Si2113 O2259   1.616   .     S
Si2113 O2260   1.617   .     S
Si2113 O2264   1.630   .     S
Si2113 O2265   1.621   .     S
Si2114 O2248   1.611   .     S
Si2114 O2261   1.643   .     S
Si2114 O2333   1.624   .     S
Si2114 O4018   1.620   .     S
Si2115 O2245   1.632   .     S
Si2115 O2261   1.625   .     S
Si2115 O2334   1.626   .     S
Si2115 O4020   1.618   .     S
Si2116 O2262   1.628   .     S
Si2116 O2263   1.625   .     S
Si2116 O2266   1.623   .     S
Si2116 O2274   1.627   .     S
Si2117 O2263   1.633   .     S
Si2117 O2264   1.627   .     S
Si2117 O2272   1.617   .     S
Si2117 O2332   1.624   .     S
Si2118 O2229   1.622   .     S
Si2118 O2275   1.626   .     S
Si2118 O2289   1.625   .     S
Si2118 O2290   1.629   .     S
Si2119 O2275   1.624   .     S
Si2119 O2276   1.625   .     S
Si2119 O2280   1.619   .     S
Si2119 O2287   1.625   .     S
Si2120 O2276   1.623   .     S
Si2120 O2277   1.626   .     S
Si2120 O2315   1.626   .     S
Si2120 O2316   1.625   .     S
Si2121 O2277   1.624   .     S
Si2121 O2278   1.620   .     S
Si2121 O2312   1.623   .     S
Si2121 O2313   1.626   .     S
Si2122 O2278   1.628   .     S
Si2122 O2279   1.623   .     S
Si2122 O2288   1.628   .     S
Si2122 O3467   1.623   1_455 S
Si2123 O2279   1.622   .     S
Si2123 O2280   1.622   .     S
Si2123 O2292   1.623   .     S
Si2123 O2293   1.628   .     S
Si2124 O2230   1.629   .     S
Si2124 O2281   1.623   .     S
Si2124 O2291   1.626   .     S
Si2124 O2319   1.622   .     S
Si2125 O2281   1.621   .     S
Si2125 O2282   1.618   .     S
Si2125 O2286   1.625   .     S
Si2125 O2287   1.623   .     S
Si2126 O2282   1.622   .     S
Si2126 O2283   1.630   .     S
Si2126 O2314   1.621   .     S
Si2126 O2321   1.624   .     S
Si2127 O2283   1.633   .     S
Si2127 O2284   1.623   .     S
Si2127 O2311   1.623   .     S
Si2127 O2322   1.623   .     S
Si2128 O2284   1.626   .     S
Si2128 O2285   1.629   .     S
Si2128 O2288   1.625   .     S
Si2128 O3468   1.626   1_455 S
Si2129 O2285   1.628   .     S
Si2129 O2286   1.630   .     S
Si2129 O2294   1.626   .     S
Si2129 O2320   1.623   .     S
Si2130 O2207   1.623   .     S
Si2130 O2297   1.625   .     S
Si2130 O2311   1.628   .     S
Si2130 O2312   1.625   .     S
Si2131 O2297   1.623   .     S
Si2131 O2298   1.624   .     S
Si2131 O2302   1.622   .     S
Si2131 O2309   1.623   .     S
Si2132 O2293   1.626   .     S
Si2132 O2294   1.626   .     S
Si2132 O2299   1.628   .     S
Si2133 O2290   1.623   .     S
Si2133 O2291   1.625   .     S
Si2133 O2299   1.623   .     S
Si2134 O2300   1.627   .     S
Si2134 O2301   1.622   .     S
Si2134 O2310   1.626   .     S
Si2134 O2317   1.623   .     S
Si2135 O2301   1.621   .     S
Si2135 O2302   1.622   .     S
Si2135 O2314   1.625   .     S
Si2135 O2315   1.625   .     S
Si2136 O2208   1.628   .     S
Si2136 O2303   1.622   .     S
Si2136 O2313   1.632   .     S
Si2136 O2323   1.620   .     S
Si2137 O2303   1.617   .     S
Si2137 O2304   1.619   .     S
Si2137 O2308   1.627   .     S
Si2137 O2309   1.623   .     S
Si2138 O2292   1.622   .     S
Si2138 O2305   1.632   .     S
Si2138 O2325   1.623   .     S
Si2139 O2289   1.622   .     S
Si2139 O2305   1.631   .     S
Si2139 O2326   1.625   .     S
Si2140 O2306   1.627   .     S
Si2140 O2307   1.624   .     S
Si2140 O2310   1.625   .     S
Si2140 O2318   1.625   .     S
Si2141 O2307   1.627   .     S
Si2141 O2308   1.629   .     S
Si2141 O2316   1.626   .     S
Si2141 O2324   1.621   .     S
Al2142 O2231   1.892   .     S
Al2142 O2232   1.714   .     S
Al2142 O2236   1.703   .     S
Al2142 O2243   1.715   .     S
O2163  Si2637  1.620   .     S
O2164  Si2643  1.625   .     S
O2166  Si3819  1.623   .     S
O2168  Si3820  1.621   .     S
O2172  Si3825  1.624   .     S
O2174  Si3826  1.621   .     S
O2207  Si3247  1.626   1_455 S
O2208  Si3253  1.626   1_455 S
O2231  H2335   1.007   .     S
O2251  Si3270  1.623   1_455 S
O2252  Si3276  1.630   1_455 S
O2295  Si2708  1.623   .     S
O2296  Si2714  1.626   .     S
O2298  Si3890  1.623   .     S
O2300  Si3891  1.622   .     S
O2304  Si3896  1.621   .     S
O2306  Si3897  1.625   .     S
H2336  C2342   1.090   .     S
H2337  C2343   1.087   .     S
H2338  C2340   1.090   .     S
H2339  C2341   1.086   .     S
C2340  C2341   1.370   .     D
C2340  C2342   1.431   .     S
C2341  S2344   1.726   .     S
C2342  C2343   1.370   .     D
C2343  S2344   1.729   .     S
Si2345 O2441   1.621   .     S
Si2345 O2455   1.626   .     S
Si2345 O2456   1.629   .     S
Si2345 O2571   1.621   .     S
Si2346 O2441   1.621   .     S
Si2346 O2442   1.623   .     S
Si2346 O2446   1.617   .     S
Si2346 O2453   1.626   .     S
Si2347 O2442   1.622   .     S
Si2347 O2443   1.623   .     S
Si2347 O2481   1.627   .     S
Si2347 O2482   1.625   .     S
Si2348 O2443   1.622   .     S
Si2348 O2444   1.617   .     S
Si2348 O2478   1.626   .     S
Si2348 O2479   1.623   .     S
Si2349 O2444   1.626   .     S
Si2349 O2445   1.623   .     S
Si2349 O2454   1.625   .     S
Si2350 O2445   1.620   .     S
Si2350 O2446   1.622   .     S
Si2350 O2458   1.622   .     S
Si2350 O2459   1.627   .     S
Si2351 O2447   1.620   .     S
Si2351 O2457   1.630   .     S
Si2351 O2572   1.629   .     S
Si2351 O2617   1.621   .     S
Si2352 O2447   1.619   .     S
Si2352 O2448   1.624   .     S
Si2352 O2452   1.623   .     S
Si2352 O2453   1.622   .     S
Si2353 O2448   1.626   .     S
Si2353 O2449   1.629   .     S
Si2353 O2480   1.621   .     S
Si2353 O2619   1.624   .     S
Si2354 O2449   1.635   .     S
Si2354 O2450   1.618   .     S
Si2354 O2477   1.619   .     S
Si2354 O2620   1.625   .     S
Si2355 O2450   1.624   .     S
Si2355 O2451   1.628   .     S
Si2355 O2454   1.620   .     S
Si2356 O2451   1.626   .     S
Si2356 O2452   1.628   .     S
Si2356 O2460   1.629   .     S
Si2356 O2618   1.623   .     S
Si2357 O2463   1.623   .     S
Si2357 O2477   1.625   .     S
Si2357 O2478   1.629   .     S
Si2357 O2549   1.614   .     S
Si2358 O2463   1.618   .     S
Si2358 O2464   1.628   .     S
Si2358 O2468   1.622   .     S
Si2358 O2475   1.621   .     S
Si2359 O2459   1.624   .     S
Si2359 O2460   1.629   .     S
Si2359 O2465   1.629   .     S
Si2360 O2456   1.622   .     S
Si2360 O2457   1.626   .     S
Si2360 O2465   1.620   .     S
Si2361 O2466   1.624   .     S
Si2361 O2467   1.618   .     S
Si2361 O2476   1.618   .     S
Si2361 O2483   1.627   .     S
Si2362 O2467   1.625   .     S
Si2362 O2468   1.620   .     S
Si2362 O2480   1.624   .     S
Si2362 O2481   1.624   .     S
Si2363 O2469   1.622   .     S
Si2363 O2479   1.627   .     S
Si2363 O2550   1.629   .     S
Si2363 O2909   1.622   .     S
Si2364 O2469   1.617   .     S
Si2364 O2470   1.622   .     S
Si2364 O2474   1.626   .     S
Si2364 O2475   1.622   .     S
Si2365 O2458   1.621   .     S
Si2365 O2471   1.634   .     S
Si2365 O2911   1.622   .     S
Si2366 O2455   1.624   .     S
Si2366 O2471   1.632   .     S
Si2366 O2912   1.625   .     S
Si2367 O2472   1.621   .     S
Si2367 O2473   1.626   .     S
Si2367 O2476   1.627   .     S
Si2367 O2484   1.624   .     S
Si2368 O2473   1.628   .     S
Si2368 O2474   1.626   .     S
Si2368 O2482   1.626   .     S
Si2368 O2910   1.622   .     S
Si2369 O2485   1.619   .     S
Si2369 O2499   1.630   .     S
Si2369 O2500   1.627   .     S
Si2369 O2615   1.621   .     S
Si2370 O2485   1.622   .     S
Si2370 O2486   1.628   .     S
Si2370 O2490   1.620   .     S
Si2370 O2497   1.623   .     S
Si2371 O2486   1.625   .     S
Si2371 O2487   1.625   .     S
Si2371 O2525   1.625   .     S
Si2371 O2526   1.630   .     S
Si2372 O2487   1.621   .     S
Si2372 O2488   1.619   .     S
Si2372 O2522   1.623   .     S
Si2372 O2523   1.625   .     S
Si2373 O2488   1.627   .     S
Si2373 O2489   1.623   .     S
Si2373 O2498   1.625   .     S
Si2373 O3091   1.626   .     S
Si2374 O2489   1.623   .     S
Si2374 O2490   1.622   .     S
Si2374 O2502   1.624   .     S
Si2374 O2503   1.627   .     S
Si2375 O2491   1.622   .     S
Si2375 O2501   1.626   .     S
Si2375 O2616   1.631   .     S
Si2375 O2625   1.625   .     S
Si2376 O2491   1.621   .     S
Si2376 O2492   1.622   .     S
Si2376 O2496   1.626   .     S
Si2376 O2497   1.626   .     S
Si2377 O2492   1.628   .     S
Si2377 O2493   1.634   .     S
Si2377 O2524   1.624   .     S
Si2377 O2627   1.623   .     S
Si2378 O2493   1.632   .     S
Si2378 O2494   1.621   .     S
Si2378 O2521   1.624   .     S
Si2378 O2628   1.623   .     S
Si2379 O2494   1.622   .     S
Si2379 O2495   1.628   .     S
Si2379 O2498   1.624   .     S
Si2379 O3092   1.626   .     S
Si2380 O2495   1.630   .     S
Si2380 O2496   1.629   .     S
Si2380 O2504   1.626   .     S
Si2380 O2626   1.620   .     S
Si2381 O2507   1.621   .     S
Si2381 O2521   1.624   .     S
Si2381 O2522   1.626   .     S
Si2381 O2593   1.623   .     S
Si2382 O2507   1.620   .     S
Si2382 O2508   1.623   .     S
Si2382 O2512   1.621   .     S
Si2382 O2519   1.624   .     S
Si2383 O2503   1.627   .     S
Si2383 O2504   1.623   .     S
Si2383 O2509   1.626   .     S
Si2383 O4266   1.622   .     S
Si2384 O2500   1.628   .     S
Si2384 O2501   1.621   .     S
Si2384 O2509   1.621   .     S
Si2384 O4268   1.619   .     S
Si2385 O2510   1.626   .     S
Si2385 O2511   1.621   .     S
Si2385 O2520   1.626   .     S
Si2385 O2527   1.625   .     S
Si2386 O2511   1.623   .     S
Si2386 O2512   1.624   .     S
Si2386 O2524   1.623   .     S
Si2386 O2525   1.627   .     S
Si2387 O2513   1.623   .     S
Si2387 O2523   1.629   .     S
Si2387 O2594   1.631   .     S
Si2387 O2629   1.619   .     S
Si2388 O2513   1.619   .     S
Si2388 O2514   1.623   .     S
Si2388 O2518   1.628   .     S
Si2388 O2519   1.621   .     S
Si2389 O2502   1.621   .     S
Si2389 O2515   1.636   .     S
Si2389 O2631   1.621   .     S
Si2389 O4272   1.624   .     S
Si2390 O2499   1.622   .     S
Si2390 O2515   1.628   .     S
Si2390 O2632   1.632   .     S
Si2390 O4274   1.620   .     S
Si2391 O2516   1.626   .     S
Si2391 O2517   1.626   .     S
Si2391 O2520   1.619   .     S
Si2391 O2528   1.627   .     S
Si2392 O2517   1.629   .     S
Si2392 O2518   1.628   .     S
Si2392 O2526   1.629   .     S
Si2392 O2630   1.622   .     S
Si2393 O2483   1.606   .     S
Si2393 O2529   1.695   .     S
Si2393 O2543   1.616   .     S
Si2393 O2544   1.598   .     S
Si2394 O2530   1.593   .     S
Si2394 O2531   1.640   .     S
Si2394 O2569   1.636   .     S
Si2394 O2570   1.638   .     S
Si2395 O2531   1.622   .     S
Si2395 O2532   1.618   .     S
Si2395 O2566   1.629   .     S
Si2395 O2567   1.629   .     S
Si2396 O2532   1.627   .     S
Si2396 O2533   1.616   .     S
Si2396 O2542   1.627   .     S
Si2396 O3135   1.623   .     S
Si2397 O2533   1.631   .     S
Si2397 O2534   1.592   .     S
Si2397 O2546   1.635   .     S
Si2397 O2547   1.636   .     S
Si2398 O2484   1.634   .     S
Si2398 O2535   1.619   .     S
Si2398 O2545   1.634   .     S
Si2398 O2913   1.626   .     S
Si2399 O2535   1.634   .     S
Si2399 O2536   1.627   .     S
Si2399 O2540   1.638   .     S
Si2399 O2541   1.601   .     S
Si2400 O2536   1.617   .     S
Si2400 O2537   1.634   .     S
Si2400 O2568   1.622   .     S
Si2400 O2915   1.630   .     S
Si2401 O2537   1.630   .     S
Si2401 O2538   1.621   .     S
Si2401 O2565   1.621   .     S
Si2401 O2916   1.627   .     S
Si2402 O2538   1.625   .     S
Si2402 O2539   1.623   .     S
Si2402 O2542   1.621   .     S
Si2402 O3136   1.630   .     S
Si2403 O2539   1.628   .     S
Si2403 O2540   1.622   .     S
Si2403 O2548   1.625   .     S
Si2403 O2914   1.626   .     S
Si2404 O2461   1.622   .     S
Si2404 O2551   1.618   .     S
Si2404 O2565   1.623   .     S
Si2404 O2566   1.629   .     S
Si2405 O2551   1.618   .     S
Si2405 O2552   1.626   .     S
Si2405 O2556   1.618   .     S
Si2405 O2563   1.628   .     S
Si2406 O2547   1.619   .     S
Si2406 O2548   1.623   .     S
Si2406 O2553   1.632   .     S
Si2406 O4310   1.627   .     S
Si2407 O2544   1.636   .     S
Si2407 O2545   1.622   .     S
Si2407 O2553   1.613   .     S
Si2407 O4312   1.619   .     S
Si2408 O2554   1.627   .     S
Si2408 O2555   1.619   .     S
Si2408 O2564   1.630   .     S
Si2408 O2571   1.625   .     S
Si2409 O2555   1.628   .     S
Si2409 O2556   1.621   .     S
Si2409 O2568   1.623   .     S
Si2409 O2569   1.625   .     S
Si2410 O2462   1.631   .     S
Si2410 O2557   1.618   .     S
Si2410 O2567   1.626   .     S
Si2410 O2629   1.622   .     S
Si2411 O2557   1.616   .     S
Si2411 O2558   1.617   .     S
Si2411 O2562   1.630   .     S
Si2411 O2563   1.621   .     S
Si2412 O2546   1.611   .     S
Si2412 O2559   1.643   .     S
Si2412 O2631   1.624   .     S
Si2412 O4316   1.620   .     S
Si2413 O2543   1.632   .     S
Si2413 O2559   1.625   .     S
Si2413 O2632   1.626   .     S
Si2413 O4318   1.618   .     S
Si2414 O2560   1.628   .     S
Si2414 O2561   1.625   .     S
Si2414 O2564   1.623   .     S
Si2414 O2572   1.627   .     S
Si2415 O2561   1.633   .     S
Si2415 O2562   1.627   .     S
Si2415 O2570   1.617   .     S
Si2415 O2630   1.624   .     S
Si2416 O2527   1.622   .     S
Si2416 O2573   1.626   .     S
Si2416 O2587   1.625   .     S
Si2416 O2588   1.629   .     S
Si2417 O2573   1.624   .     S
Si2417 O2574   1.625   .     S
Si2417 O2578   1.619   .     S
Si2417 O2585   1.625   .     S
Si2418 O2574   1.623   .     S
Si2418 O2575   1.626   .     S
Si2418 O2613   1.626   .     S
Si2418 O2614   1.625   .     S
Si2419 O2575   1.624   .     S
Si2419 O2576   1.620   .     S
Si2419 O2610   1.623   .     S
Si2419 O2611   1.626   .     S
Si2420 O2576   1.628   .     S
Si2420 O2577   1.623   .     S
Si2420 O2586   1.628   .     S
Si2421 O2577   1.622   .     S
Si2421 O2578   1.622   .     S
Si2421 O2590   1.623   .     S
Si2421 O2591   1.628   .     S
Si2422 O2528   1.629   .     S
Si2422 O2579   1.623   .     S
Si2422 O2589   1.626   .     S
Si2422 O2617   1.622   .     S
Si2423 O2579   1.621   .     S
Si2423 O2580   1.618   .     S
Si2423 O2584   1.625   .     S
Si2423 O2585   1.623   .     S
Si2424 O2580   1.622   .     S
Si2424 O2581   1.630   .     S
Si2424 O2612   1.621   .     S
Si2424 O2619   1.624   .     S
Si2425 O2581   1.633   .     S
Si2425 O2582   1.623   .     S
Si2425 O2609   1.623   .     S
Si2425 O2620   1.623   .     S
Si2426 O2582   1.626   .     S
Si2426 O2583   1.629   .     S
Si2426 O2586   1.625   .     S
Si2427 O2583   1.628   .     S
Si2427 O2584   1.630   .     S
Si2427 O2592   1.626   .     S
Si2427 O2618   1.623   .     S
Si2428 O2505   1.623   .     S
Si2428 O2595   1.625   .     S
Si2428 O2609   1.628   .     S
Si2428 O2610   1.625   .     S
Si2429 O2595   1.623   .     S
Si2429 O2596   1.624   .     S
Si2429 O2600   1.622   .     S
Si2429 O2607   1.623   .     S
Si2430 O2591   1.626   .     S
Si2430 O2592   1.626   .     S
Si2430 O2597   1.628   .     S
Si2431 O2588   1.623   .     S
Si2431 O2589   1.625   .     S
Si2431 O2597   1.623   .     S
Si2432 O2598   1.627   .     S
Si2432 O2599   1.622   .     S
Si2432 O2608   1.626   .     S
Si2432 O2615   1.623   .     S
Si2433 O2599   1.621   .     S
Si2433 O2600   1.622   .     S
Si2433 O2612   1.625   .     S
Si2433 O2613   1.625   .     S
Si2434 O2506   1.628   .     S
Si2434 O2601   1.622   .     S
Si2434 O2611   1.632   .     S
Si2434 O2621   1.620   .     S
Si2435 O2601   1.617   .     S
Si2435 O2602   1.619   .     S
Si2435 O2606   1.627   .     S
Si2435 O2607   1.623   .     S
Si2436 O2590   1.622   .     S
Si2436 O2603   1.632   .     S
Si2436 O2623   1.623   .     S
Si2437 O2587   1.622   .     S
Si2437 O2603   1.631   .     S
Si2437 O2624   1.625   .     S
Si2438 O2604   1.627   .     S
Si2438 O2605   1.624   .     S
Si2438 O2608   1.625   .     S
Si2438 O2616   1.625   .     S
Si2439 O2605   1.627   .     S
Si2439 O2606   1.629   .     S
Si2439 O2614   1.626   .     S
Si2439 O2622   1.621   .     S
Al2440 O2529   1.892   .     S
Al2440 O2530   1.714   .     S
Al2440 O2534   1.703   .     S
Al2440 O2541   1.715   .     S
O2461  Si2935  1.620   .     S
O2462  Si2941  1.625   .     S
O2464  Si4117  1.623   .     S
O2466  Si4118  1.621   .     S
O2470  Si4123  1.624   .     S
O2472  Si4124  1.621   .     S
O2593  Si3006  1.623   .     S
O2594  Si3012  1.626   .     S
O2596  Si4188  1.623   .     S
O2598  Si4189  1.622   .     S
O2602  Si4194  1.621   .     S
O2604  Si4195  1.625   .     S
O2621  Si2651  1.622   1_545 S
O2622  Si2656  1.622   1_545 S
O2623  Si2653  1.622   1_545 S
O2624  Si2654  1.625   1_545 S
O2625  Si2686  1.626   1_545 S
O2626  Si2691  1.626   1_545 S
O2627  Si2688  1.630   1_545 S
O2628  Si2689  1.627   1_545 S
Si2633 O2729   1.621   .     S
Si2633 O2743   1.626   .     S
Si2633 O2744   1.629   .     S
Si2633 O2859   1.621   .     S
Si2634 O2729   1.621   .     S
Si2634 O2730   1.623   .     S
Si2634 O2734   1.617   .     S
Si2634 O2741   1.626   .     S
Si2635 O2730   1.622   .     S
Si2635 O2731   1.623   .     S
Si2635 O2769   1.627   .     S
Si2635 O2770   1.625   .     S
Si2636 O2731   1.622   .     S
Si2636 O2732   1.617   .     S
Si2636 O2766   1.626   .     S
Si2636 O2767   1.623   .     S
Si2637 O2732   1.626   .     S
Si2637 O2733   1.623   .     S
Si2637 O2742   1.625   .     S
Si2638 O2733   1.620   .     S
Si2638 O2734   1.622   .     S
Si2638 O2746   1.622   .     S
Si2638 O2747   1.627   .     S
Si2639 O2735   1.620   .     S
Si2639 O2745   1.630   .     S
Si2639 O2860   1.629   .     S
Si2639 O2905   1.621   .     S
Si2640 O2735   1.619   .     S
Si2640 O2736   1.624   .     S
Si2640 O2740   1.623   .     S
Si2640 O2741   1.622   .     S
Si2641 O2736   1.626   .     S
Si2641 O2737   1.629   .     S
Si2641 O2768   1.621   .     S
Si2641 O2907   1.624   .     S
Si2642 O2737   1.635   .     S
Si2642 O2738   1.618   .     S
Si2642 O2765   1.619   .     S
Si2642 O2908   1.625   .     S
Si2643 O2738   1.624   .     S
Si2643 O2739   1.628   .     S
Si2643 O2742   1.620   .     S
Si2644 O2739   1.626   .     S
Si2644 O2740   1.628   .     S
Si2644 O2748   1.629   .     S
Si2644 O2906   1.623   .     S
Si2645 O2751   1.623   .     S
Si2645 O2765   1.625   .     S
Si2645 O2766   1.629   .     S
Si2645 O2837   1.614   .     S
Si2646 O2751   1.618   .     S
Si2646 O2752   1.628   .     S
Si2646 O2756   1.622   .     S
Si2646 O2763   1.621   .     S
Si2647 O2747   1.624   .     S
Si2647 O2748   1.629   .     S
Si2647 O2753   1.629   .     S
Si2648 O2744   1.622   .     S
Si2648 O2745   1.626   .     S
Si2648 O2753   1.620   .     S
Si2649 O2754   1.624   .     S
Si2649 O2755   1.618   .     S
Si2649 O2764   1.618   .     S
Si2649 O2771   1.627   .     S
Si2650 O2755   1.625   .     S
Si2650 O2756   1.620   .     S
Si2650 O2768   1.624   .     S
Si2650 O2769   1.624   .     S
Si2651 O2757   1.622   .     S
Si2651 O2767   1.627   .     S
Si2651 O2838   1.629   .     S
Si2651 O2621   1.622   1_565 S
Si2652 O2757   1.617   .     S
Si2652 O2758   1.622   .     S
Si2652 O2762   1.626   .     S
Si2652 O2763   1.622   .     S
Si2653 O2746   1.621   .     S
Si2653 O2759   1.634   .     S
Si2653 O2623   1.622   1_565 S
Si2654 O2743   1.624   .     S
Si2654 O2759   1.632   .     S
Si2654 O2624   1.625   1_565 S
Si2655 O2760   1.621   .     S
Si2655 O2761   1.626   .     S
Si2655 O2764   1.627   .     S
Si2655 O2772   1.624   .     S
Si2656 O2761   1.628   .     S
Si2656 O2762   1.626   .     S
Si2656 O2770   1.626   .     S
Si2656 O2622   1.622   1_565 S
Si2657 O2773   1.619   .     S
Si2657 O2787   1.630   .     S
Si2657 O2788   1.627   .     S
Si2657 O2903   1.621   .     S
Si2658 O2773   1.622   .     S
Si2658 O2774   1.628   .     S
Si2658 O2778   1.620   .     S
Si2658 O2785   1.623   .     S
Si2659 O2774   1.625   .     S
Si2659 O2775   1.625   .     S
Si2659 O2813   1.625   .     S
Si2659 O2814   1.630   .     S
Si2660 O2775   1.621   .     S
Si2660 O2776   1.619   .     S
Si2660 O2810   1.623   .     S
Si2660 O2811   1.625   .     S
Si2661 O2776   1.627   .     S
Si2661 O2777   1.623   .     S
Si2661 O2786   1.625   .     S
Si2661 O3379   1.626   .     S
Si2662 O2777   1.623   .     S
Si2662 O2778   1.622   .     S
Si2662 O2790   1.624   .     S
Si2662 O2791   1.627   .     S
Si2663 O2779   1.622   .     S
Si2663 O2789   1.626   .     S
Si2663 O2904   1.631   .     S
Si2663 O2913   1.625   .     S
Si2664 O2779   1.621   .     S
Si2664 O2780   1.622   .     S
Si2664 O2784   1.626   .     S
Si2664 O2785   1.626   .     S
Si2665 O2780   1.628   .     S
Si2665 O2781   1.634   .     S
Si2665 O2812   1.624   .     S
Si2665 O2915   1.623   .     S
Si2666 O2781   1.632   .     S
Si2666 O2782   1.621   .     S
Si2666 O2809   1.624   .     S
Si2666 O2916   1.623   .     S
Si2667 O2782   1.622   .     S
Si2667 O2783   1.628   .     S
Si2667 O2786   1.624   .     S
Si2667 O3380   1.626   .     S
Si2668 O2783   1.630   .     S
Si2668 O2784   1.629   .     S
Si2668 O2792   1.626   .     S
Si2668 O2914   1.620   .     S
Si2669 O2795   1.621   .     S
Si2669 O2809   1.624   .     S
Si2669 O2810   1.626   .     S
Si2669 O2881   1.623   .     S
Si2670 O2795   1.620   .     S
Si2670 O2796   1.623   .     S
Si2670 O2800   1.621   .     S
Si2670 O2807   1.624   .     S
Si2671 O2791   1.627   .     S
Si2671 O2792   1.623   .     S
Si2671 O2797   1.626   .     S
Si2671 O4554   1.622   .     S
Si2672 O2788   1.628   .     S
Si2672 O2789   1.621   .     S
Si2672 O2797   1.621   .     S
Si2672 O4556   1.619   .     S
Si2673 O2798   1.626   .     S
Si2673 O2799   1.621   .     S
Si2673 O2808   1.626   .     S
Si2673 O2815   1.625   .     S
Si2674 O2799   1.623   .     S
Si2674 O2800   1.624   .     S
Si2674 O2812   1.623   .     S
Si2674 O2813   1.627   .     S
Si2675 O2801   1.623   .     S
Si2675 O2811   1.629   .     S
Si2675 O2882   1.631   .     S
Si2675 O2917   1.619   .     S
Si2676 O2801   1.619   .     S
Si2676 O2802   1.623   .     S
Si2676 O2806   1.628   .     S
Si2676 O2807   1.621   .     S
Si2677 O2790   1.621   .     S
Si2677 O2803   1.636   .     S
Si2677 O2919   1.621   .     S
Si2677 O4560   1.624   .     S
Si2678 O2787   1.622   .     S
Si2678 O2803   1.628   .     S
Si2678 O2920   1.632   .     S
Si2678 O4562   1.620   .     S
Si2679 O2804   1.626   .     S
Si2679 O2805   1.626   .     S
Si2679 O2808   1.619   .     S
Si2679 O2816   1.627   .     S
Si2680 O2805   1.629   .     S
Si2680 O2806   1.628   .     S
Si2680 O2814   1.629   .     S
Si2680 O2918   1.622   .     S
Si2681 O2771   1.606   .     S
Si2681 O2817   1.695   .     S
Si2681 O2831   1.616   .     S
Si2681 O2832   1.598   .     S
Si2682 O2818   1.593   .     S
Si2682 O2819   1.640   .     S
Si2682 O2857   1.636   .     S
Si2682 O2858   1.638   .     S
Si2683 O2819   1.622   .     S
Si2683 O2820   1.618   .     S
Si2683 O2854   1.629   .     S
Si2683 O2855   1.629   .     S
Si2684 O2820   1.627   .     S
Si2684 O2821   1.616   .     S
Si2684 O2830   1.627   .     S
Si2684 O3423   1.623   .     S
Si2685 O2821   1.631   .     S
Si2685 O2822   1.592   .     S
Si2685 O2834   1.635   .     S
Si2685 O2835   1.636   .     S
Si2686 O2772   1.634   .     S
Si2686 O2823   1.619   .     S
Si2686 O2833   1.634   .     S
Si2686 O2625   1.626   1_565 S
Si2687 O2823   1.634   .     S
Si2687 O2824   1.627   .     S
Si2687 O2828   1.638   .     S
Si2687 O2829   1.601   .     S
Si2688 O2824   1.617   .     S
Si2688 O2825   1.634   .     S
Si2688 O2856   1.622   .     S
Si2688 O2627   1.630   1_565 S
Si2689 O2825   1.630   .     S
Si2689 O2826   1.621   .     S
Si2689 O2853   1.621   .     S
Si2689 O2628   1.627   1_565 S
Si2690 O2826   1.625   .     S
Si2690 O2827   1.623   .     S
Si2690 O2830   1.621   .     S
Si2690 O3424   1.630   .     S
Si2691 O2827   1.628   .     S
Si2691 O2828   1.622   .     S
Si2691 O2836   1.625   .     S
Si2691 O2626   1.626   1_565 S
Si2692 O2749   1.622   .     S
Si2692 O2839   1.618   .     S
Si2692 O2853   1.623   .     S
Si2692 O2854   1.629   .     S
Si2693 O2839   1.618   .     S
Si2693 O2840   1.626   .     S
Si2693 O2844   1.618   .     S
Si2693 O2851   1.628   .     S
Si2694 O2835   1.619   .     S
Si2694 O2836   1.623   .     S
Si2694 O2841   1.632   .     S
Si2694 O4598   1.627   .     S
Si2695 O2832   1.636   .     S
Si2695 O2833   1.622   .     S
Si2695 O2841   1.613   .     S
Si2695 O4600   1.619   .     S
Si2696 O2842   1.627   .     S
Si2696 O2843   1.619   .     S
Si2696 O2852   1.630   .     S
Si2696 O2859   1.625   .     S
Si2697 O2843   1.628   .     S
Si2697 O2844   1.621   .     S
Si2697 O2856   1.623   .     S
Si2697 O2857   1.625   .     S
Si2698 O2750   1.631   .     S
Si2698 O2845   1.618   .     S
Si2698 O2855   1.626   .     S
Si2698 O2917   1.622   .     S
Si2699 O2845   1.616   .     S
Si2699 O2846   1.617   .     S
Si2699 O2850   1.630   .     S
Si2699 O2851   1.621   .     S
Si2700 O2834   1.611   .     S
Si2700 O2847   1.643   .     S
Si2700 O2919   1.624   .     S
Si2700 O4604   1.620   .     S
Si2701 O2831   1.632   .     S
Si2701 O2847   1.625   .     S
Si2701 O2920   1.626   .     S
Si2701 O4606   1.618   .     S
Si2702 O2848   1.628   .     S
Si2702 O2849   1.625   .     S
Si2702 O2852   1.623   .     S
Si2702 O2860   1.627   .     S
Si2703 O2849   1.633   .     S
Si2703 O2850   1.627   .     S
Si2703 O2858   1.617   .     S
Si2703 O2918   1.624   .     S
Si2704 O2815   1.622   .     S
Si2704 O2861   1.626   .     S
Si2704 O2875   1.625   .     S
Si2704 O2876   1.629   .     S
Si2705 O2861   1.624   .     S
Si2705 O2862   1.625   .     S
Si2705 O2866   1.619   .     S
Si2705 O2873   1.625   .     S
Si2706 O2862   1.623   .     S
Si2706 O2863   1.626   .     S
Si2706 O2901   1.626   .     S
Si2706 O2902   1.625   .     S
Si2707 O2863   1.624   .     S
Si2707 O2864   1.620   .     S
Si2707 O2898   1.623   .     S
Si2707 O2899   1.626   .     S
Si2708 O2864   1.628   .     S
Si2708 O2865   1.623   .     S
Si2708 O2874   1.628   .     S
Si2709 O2865   1.622   .     S
Si2709 O2866   1.622   .     S
Si2709 O2878   1.623   .     S
Si2709 O2879   1.628   .     S
Si2710 O2816   1.629   .     S
Si2710 O2867   1.623   .     S
Si2710 O2877   1.626   .     S
Si2710 O2905   1.622   .     S
Si2711 O2867   1.621   .     S
Si2711 O2868   1.618   .     S
Si2711 O2872   1.625   .     S
Si2711 O2873   1.623   .     S
Si2712 O2868   1.622   .     S
Si2712 O2869   1.630   .     S
Si2712 O2900   1.621   .     S
Si2712 O2907   1.624   .     S
Si2713 O2869   1.633   .     S
Si2713 O2870   1.623   .     S
Si2713 O2897   1.623   .     S
Si2713 O2908   1.623   .     S
Si2714 O2870   1.626   .     S
Si2714 O2871   1.629   .     S
Si2714 O2874   1.625   .     S
Si2715 O2871   1.628   .     S
Si2715 O2872   1.630   .     S
Si2715 O2880   1.626   .     S
Si2715 O2906   1.623   .     S
Si2716 O2793   1.623   .     S
Si2716 O2883   1.625   .     S
Si2716 O2897   1.628   .     S
Si2716 O2898   1.625   .     S
Si2717 O2883   1.623   .     S
Si2717 O2884   1.624   .     S
Si2717 O2888   1.622   .     S
Si2717 O2895   1.623   .     S
Si2718 O2879   1.626   .     S
Si2718 O2880   1.626   .     S
Si2718 O2885   1.628   .     S
Si2719 O2876   1.623   .     S
Si2719 O2877   1.625   .     S
Si2719 O2885   1.623   .     S
Si2720 O2886   1.627   .     S
Si2720 O2887   1.622   .     S
Si2720 O2896   1.626   .     S
Si2720 O2903   1.623   .     S
Si2721 O2887   1.621   .     S
Si2721 O2888   1.622   .     S
Si2721 O2900   1.625   .     S
Si2721 O2901   1.625   .     S
Si2722 O2794   1.628   .     S
Si2722 O2889   1.622   .     S
Si2722 O2899   1.632   .     S
Si2722 O2909   1.620   .     S
Si2723 O2889   1.617   .     S
Si2723 O2890   1.619   .     S
Si2723 O2894   1.627   .     S
Si2723 O2895   1.623   .     S
Si2724 O2878   1.622   .     S
Si2724 O2891   1.632   .     S
Si2724 O2911   1.623   .     S
Si2725 O2875   1.622   .     S
Si2725 O2891   1.631   .     S
Si2725 O2912   1.625   .     S
Si2726 O2892   1.627   .     S
Si2726 O2893   1.624   .     S
Si2726 O2896   1.625   .     S
Si2726 O2904   1.625   .     S
Si2727 O2893   1.627   .     S
Si2727 O2894   1.629   .     S
Si2727 O2902   1.626   .     S
Si2727 O2910   1.621   .     S
Al2728 O2817   1.892   .     S
Al2728 O2818   1.714   .     S
Al2728 O2822   1.703   .     S
Al2728 O2829   1.715   .     S
O2749  Si3223  1.620   .     S
O2750  Si3229  1.625   .     S
O2752  Si4405  1.623   .     S
O2754  Si4406  1.621   .     S
O2758  Si4411  1.624   .     S
O2760  Si4412  1.621   .     S
O2817  H2921   1.007   .     S
O2881  Si3294  1.623   .     S
O2882  Si3300  1.626   .     S
O2884  Si4476  1.623   .     S
O2886  Si4477  1.622   .     S
O2890  Si4482  1.621   .     S
O2892  Si4483  1.625   .     S
H2922  C2928   1.090   .     S
H2923  C2929   1.087   .     S
H2924  C2926   1.090   .     S
H2925  C2927   1.086   .     S
C2926  C2927   1.370   .     D
C2926  C2928   1.431   .     S
C2927  S2930   1.726   .     S
C2928  C2929   1.370   .     D
C2929  S2930   1.729   .     S
Si2931 O3027   1.621   .     S
Si2931 O3041   1.626   .     S
Si2931 O3042   1.629   .     S
Si2931 O3157   1.621   .     S
Si2932 O3027   1.621   .     S
Si2932 O3028   1.623   .     S
Si2932 O3032   1.617   .     S
Si2932 O3039   1.626   .     S
Si2933 O3028   1.622   .     S
Si2933 O3029   1.623   .     S
Si2933 O3067   1.627   .     S
Si2933 O3068   1.625   .     S
Si2934 O3029   1.622   .     S
Si2934 O3030   1.617   .     S
Si2934 O3064   1.626   .     S
Si2934 O3065   1.623   .     S
Si2935 O3030   1.626   .     S
Si2935 O3031   1.623   .     S
Si2935 O3040   1.625   .     S
Si2936 O3031   1.620   .     S
Si2936 O3032   1.622   .     S
Si2936 O3044   1.622   .     S
Si2936 O3045   1.627   .     S
Si2937 O3033   1.620   .     S
Si2937 O3043   1.630   .     S
Si2937 O3158   1.629   .     S
Si2937 O3203   1.621   .     S
Si2938 O3033   1.619   .     S
Si2938 O3034   1.624   .     S
Si2938 O3038   1.623   .     S
Si2938 O3039   1.622   .     S
Si2939 O3034   1.626   .     S
Si2939 O3035   1.629   .     S
Si2939 O3066   1.621   .     S
Si2939 O3205   1.624   .     S
Si2940 O3035   1.635   .     S
Si2940 O3036   1.618   .     S
Si2940 O3063   1.619   .     S
Si2940 O3206   1.625   .     S
Si2941 O3036   1.624   .     S
Si2941 O3037   1.628   .     S
Si2941 O3040   1.620   .     S
Si2942 O3037   1.626   .     S
Si2942 O3038   1.628   .     S
Si2942 O3046   1.629   .     S
Si2942 O3204   1.623   .     S
Si2943 O3049   1.623   .     S
Si2943 O3063   1.625   .     S
Si2943 O3064   1.629   .     S
Si2943 O3135   1.614   .     S
Si2944 O3049   1.618   .     S
Si2944 O3050   1.628   .     S
Si2944 O3054   1.622   .     S
Si2944 O3061   1.621   .     S
Si2945 O3045   1.624   .     S
Si2945 O3046   1.629   .     S
Si2945 O3051   1.629   .     S
Si2946 O3042   1.622   .     S
Si2946 O3043   1.626   .     S
Si2946 O3051   1.620   .     S
Si2947 O3052   1.624   .     S
Si2947 O3053   1.618   .     S
Si2947 O3062   1.618   .     S
Si2947 O3069   1.627   .     S
Si2948 O3053   1.625   .     S
Si2948 O3054   1.620   .     S
Si2948 O3066   1.624   .     S
Si2948 O3067   1.624   .     S
Si2949 O3055   1.622   .     S
Si2949 O3065   1.627   .     S
Si2949 O3136   1.629   .     S
Si2949 O3495   1.622   .     S
Si2950 O3055   1.617   .     S
Si2950 O3056   1.622   .     S
Si2950 O3060   1.626   .     S
Si2950 O3061   1.622   .     S
Si2951 O3044   1.621   .     S
Si2951 O3057   1.634   .     S
Si2951 O3497   1.622   .     S
Si2952 O3041   1.624   .     S
Si2952 O3057   1.632   .     S
Si2952 O3498   1.625   .     S
Si2953 O3058   1.621   .     S
Si2953 O3059   1.626   .     S
Si2953 O3062   1.627   .     S
Si2953 O3070   1.624   .     S
Si2954 O3059   1.628   .     S
Si2954 O3060   1.626   .     S
Si2954 O3068   1.626   .     S
Si2954 O3496   1.622   .     S
Si2955 O3071   1.619   .     S
Si2955 O3085   1.630   .     S
Si2955 O3086   1.627   .     S
Si2955 O3201   1.621   .     S
Si2956 O3071   1.622   .     S
Si2956 O3072   1.628   .     S
Si2956 O3076   1.620   .     S
Si2956 O3083   1.623   .     S
Si2957 O3072   1.625   .     S
Si2957 O3073   1.625   .     S
Si2957 O3111   1.625   .     S
Si2957 O3112   1.630   .     S
Si2958 O3073   1.621   .     S
Si2958 O3074   1.619   .     S
Si2958 O3108   1.623   .     S
Si2958 O3109   1.625   .     S
Si2959 O3074   1.627   .     S
Si2959 O3075   1.623   .     S
Si2959 O3084   1.625   .     S
Si2959 O1919   1.626   1_655 S
Si2960 O3075   1.623   .     S
Si2960 O3076   1.622   .     S
Si2960 O3088   1.624   .     S
Si2960 O3089   1.627   .     S
Si2961 O3077   1.622   .     S
Si2961 O3087   1.626   .     S
Si2961 O3202   1.631   .     S
Si2961 O3211   1.625   .     S
Si2962 O3077   1.621   .     S
Si2962 O3078   1.622   .     S
Si2962 O3082   1.626   .     S
Si2962 O3083   1.626   .     S
Si2963 O3078   1.628   .     S
Si2963 O3079   1.634   .     S
Si2963 O3110   1.624   .     S
Si2963 O3213   1.623   .     S
Si2964 O3079   1.632   .     S
Si2964 O3080   1.621   .     S
Si2964 O3107   1.624   .     S
Si2964 O3214   1.623   .     S
Si2965 O3080   1.622   .     S
Si2965 O3081   1.628   .     S
Si2965 O3084   1.624   .     S
Si2965 O1920   1.626   1_655 S
Si2966 O3081   1.630   .     S
Si2966 O3082   1.629   .     S
Si2966 O3090   1.626   .     S
Si2966 O3212   1.620   .     S
Si2967 O3093   1.621   .     S
Si2967 O3107   1.624   .     S
Si2967 O3108   1.626   .     S
Si2967 O3179   1.623   .     S
Si2968 O3093   1.620   .     S
Si2968 O3094   1.623   .     S
Si2968 O3098   1.621   .     S
Si2968 O3105   1.624   .     S
Si2969 O3089   1.627   .     S
Si2969 O3090   1.623   .     S
Si2969 O3095   1.626   .     S
Si2969 O4852   1.622   .     S
Si2970 O3086   1.628   .     S
Si2970 O3087   1.621   .     S
Si2970 O3095   1.621   .     S
Si2970 O4854   1.619   .     S
Si2971 O3096   1.626   .     S
Si2971 O3097   1.621   .     S
Si2971 O3106   1.626   .     S
Si2971 O3113   1.625   .     S
Si2972 O3097   1.623   .     S
Si2972 O3098   1.624   .     S
Si2972 O3110   1.623   .     S
Si2972 O3111   1.627   .     S
Si2973 O3099   1.623   .     S
Si2973 O3109   1.629   .     S
Si2973 O3180   1.631   .     S
Si2973 O3215   1.619   .     S
Si2974 O3099   1.619   .     S
Si2974 O3100   1.623   .     S
Si2974 O3104   1.628   .     S
Si2974 O3105   1.621   .     S
Si2975 O3088   1.621   .     S
Si2975 O3101   1.636   .     S
Si2975 O3217   1.621   .     S
Si2975 O4858   1.624   .     S
Si2976 O3085   1.622   .     S
Si2976 O3101   1.628   .     S
Si2976 O3218   1.632   .     S
Si2976 O4860   1.620   .     S
Si2977 O3102   1.626   .     S
Si2977 O3103   1.626   .     S
Si2977 O3106   1.619   .     S
Si2977 O3114   1.627   .     S
Si2978 O3103   1.629   .     S
Si2978 O3104   1.628   .     S
Si2978 O3112   1.629   .     S
Si2978 O3216   1.622   .     S
Si2979 O3069   1.606   .     S
Si2979 O3115   1.695   .     S
Si2979 O3129   1.616   .     S
Si2979 O3130   1.598   .     S
Si2980 O3116   1.593   .     S
Si2980 O3117   1.640   .     S
Si2980 O3155   1.636   .     S
Si2980 O3156   1.638   .     S
Si2981 O3117   1.622   .     S
Si2981 O3118   1.618   .     S
Si2981 O3152   1.629   .     S
Si2981 O3153   1.629   .     S
Si2982 O3118   1.627   .     S
Si2982 O3119   1.616   .     S
Si2982 O3128   1.627   .     S
Si2982 O1963   1.623   1_655 S
Si2983 O3119   1.631   .     S
Si2983 O3120   1.592   .     S
Si2983 O3132   1.635   .     S
Si2983 O3133   1.636   .     S
Si2984 O3070   1.634   .     S
Si2984 O3121   1.619   .     S
Si2984 O3131   1.634   .     S
Si2984 O3499   1.626   .     S
Si2985 O3121   1.634   .     S
Si2985 O3122   1.627   .     S
Si2985 O3126   1.638   .     S
Si2985 O3127   1.601   .     S
Si2986 O3122   1.617   .     S
Si2986 O3123   1.634   .     S
Si2986 O3154   1.622   .     S
Si2986 O3501   1.630   .     S
Si2987 O3123   1.630   .     S
Si2987 O3124   1.621   .     S
Si2987 O3151   1.621   .     S
Si2987 O3502   1.627   .     S
Si2988 O3124   1.625   .     S
Si2988 O3125   1.623   .     S
Si2988 O3128   1.621   .     S
Si2988 O1964   1.630   1_655 S
Si2989 O3125   1.628   .     S
Si2989 O3126   1.622   .     S
Si2989 O3134   1.625   .     S
Si2989 O3500   1.626   .     S
Si2990 O3047   1.622   .     S
Si2990 O3137   1.618   .     S
Si2990 O3151   1.623   .     S
Si2990 O3152   1.629   .     S
Si2991 O3137   1.618   .     S
Si2991 O3138   1.626   .     S
Si2991 O3142   1.618   .     S
Si2991 O3149   1.628   .     S
Si2992 O3133   1.619   .     S
Si2992 O3134   1.623   .     S
Si2992 O3139   1.632   .     S
Si2992 O4896   1.627   .     S
Si2993 O3130   1.636   .     S
Si2993 O3131   1.622   .     S
Si2993 O3139   1.613   .     S
Si2993 O4898   1.619   .     S
Si2994 O3140   1.627   .     S
Si2994 O3141   1.619   .     S
Si2994 O3150   1.630   .     S
Si2994 O3157   1.625   .     S
Si2995 O3141   1.628   .     S
Si2995 O3142   1.621   .     S
Si2995 O3154   1.623   .     S
Si2995 O3155   1.625   .     S
Si2996 O3048   1.631   .     S
Si2996 O3143   1.618   .     S
Si2996 O3153   1.626   .     S
Si2996 O3215   1.622   .     S
Si2997 O3143   1.616   .     S
Si2997 O3144   1.617   .     S
Si2997 O3148   1.630   .     S
Si2997 O3149   1.621   .     S
Si2998 O3132   1.611   .     S
Si2998 O3145   1.643   .     S
Si2998 O3217   1.624   .     S
Si2998 O4902   1.620   .     S
Si2999 O3129   1.632   .     S
Si2999 O3145   1.625   .     S
Si2999 O3218   1.626   .     S
Si2999 O4904   1.618   .     S
Si3000 O3146   1.628   .     S
Si3000 O3147   1.625   .     S
Si3000 O3150   1.623   .     S
Si3000 O3158   1.627   .     S
Si3001 O3147   1.633   .     S
Si3001 O3148   1.627   .     S
Si3001 O3156   1.617   .     S
Si3001 O3216   1.624   .     S
Si3002 O3113   1.622   .     S
Si3002 O3159   1.626   .     S
Si3002 O3173   1.625   .     S
Si3002 O3174   1.629   .     S
Si3003 O3159   1.624   .     S
Si3003 O3160   1.625   .     S
Si3003 O3164   1.619   .     S
Si3003 O3171   1.625   .     S
Si3004 O3160   1.623   .     S
Si3004 O3161   1.626   .     S
Si3004 O3199   1.626   .     S
Si3004 O3200   1.625   .     S
Si3005 O3161   1.624   .     S
Si3005 O3162   1.620   .     S
Si3005 O3196   1.623   .     S
Si3005 O3197   1.626   .     S
Si3006 O3162   1.628   .     S
Si3006 O3163   1.623   .     S
Si3006 O3172   1.628   .     S
Si3007 O3163   1.622   .     S
Si3007 O3164   1.622   .     S
Si3007 O3176   1.623   .     S
Si3007 O3177   1.628   .     S
Si3008 O3114   1.629   .     S
Si3008 O3165   1.623   .     S
Si3008 O3175   1.626   .     S
Si3008 O3203   1.622   .     S
Si3009 O3165   1.621   .     S
Si3009 O3166   1.618   .     S
Si3009 O3170   1.625   .     S
Si3009 O3171   1.623   .     S
Si3010 O3166   1.622   .     S
Si3010 O3167   1.630   .     S
Si3010 O3198   1.621   .     S
Si3010 O3205   1.624   .     S
Si3011 O3167   1.633   .     S
Si3011 O3168   1.623   .     S
Si3011 O3195   1.623   .     S
Si3011 O3206   1.623   .     S
Si3012 O3168   1.626   .     S
Si3012 O3169   1.629   .     S
Si3012 O3172   1.625   .     S
Si3013 O3169   1.628   .     S
Si3013 O3170   1.630   .     S
Si3013 O3178   1.626   .     S
Si3013 O3204   1.623   .     S
Si3014 O3091   1.623   .     S
Si3014 O3181   1.625   .     S
Si3014 O3195   1.628   .     S
Si3014 O3196   1.625   .     S
Si3015 O3181   1.623   .     S
Si3015 O3182   1.624   .     S
Si3015 O3186   1.622   .     S
Si3015 O3193   1.623   .     S
Si3016 O3177   1.626   .     S
Si3016 O3178   1.626   .     S
Si3016 O3183   1.628   .     S
Si3017 O3174   1.623   .     S
Si3017 O3175   1.625   .     S
Si3017 O3183   1.623   .     S
Si3018 O3184   1.627   .     S
Si3018 O3185   1.622   .     S
Si3018 O3194   1.626   .     S
Si3018 O3201   1.623   .     S
Si3019 O3185   1.621   .     S
Si3019 O3186   1.622   .     S
Si3019 O3198   1.625   .     S
Si3019 O3199   1.625   .     S
Si3020 O3092   1.628   .     S
Si3020 O3187   1.622   .     S
Si3020 O3197   1.632   .     S
Si3020 O3207   1.620   .     S
Si3021 O3187   1.617   .     S
Si3021 O3188   1.619   .     S
Si3021 O3192   1.627   .     S
Si3021 O3193   1.623   .     S
Si3022 O3176   1.622   .     S
Si3022 O3189   1.632   .     S
Si3022 O3209   1.623   .     S
Si3023 O3173   1.622   .     S
Si3023 O3189   1.631   .     S
Si3023 O3210   1.625   .     S
Si3024 O3190   1.627   .     S
Si3024 O3191   1.624   .     S
Si3024 O3194   1.625   .     S
Si3024 O3202   1.625   .     S
Si3025 O3191   1.627   .     S
Si3025 O3192   1.629   .     S
Si3025 O3200   1.626   .     S
Si3025 O3208   1.621   .     S
Al3026 O3115   1.892   .     S
Al3026 O3116   1.714   .     S
Al3026 O3120   1.703   .     S
Al3026 O3127   1.715   .     S
O3047  Si1763  1.620   1_655 S
O3048  Si1769  1.625   1_655 S
O3050  Si4703  1.623   .     S
O3052  Si4704  1.621   .     S
O3056  Si4709  1.624   .     S
O3058  Si4710  1.621   .     S
O3179  Si1834  1.623   1_655 S
O3180  Si1840  1.626   1_655 S
O3182  Si4774  1.623   .     S
O3184  Si4775  1.622   .     S
O3188  Si4780  1.621   .     S
O3190  Si4781  1.625   .     S
O3207  Si3237  1.622   1_545 S
O3208  Si3242  1.622   1_545 S
O3209  Si3239  1.622   1_545 S
O3210  Si3240  1.625   1_545 S
O3211  Si3272  1.626   1_545 S
O3212  Si3277  1.626   1_545 S
O3213  Si3274  1.630   1_545 S
O3214  Si3275  1.627   1_545 S
Si3219 O3315   1.621   .     S
Si3219 O3329   1.626   .     S
Si3219 O3330   1.629   .     S
Si3219 O3445   1.621   .     S
Si3220 O3315   1.621   .     S
Si3220 O3316   1.623   .     S
Si3220 O3320   1.617   .     S
Si3220 O3327   1.626   .     S
Si3221 O3316   1.622   .     S
Si3221 O3317   1.623   .     S
Si3221 O3355   1.627   .     S
Si3221 O3356   1.625   .     S
Si3222 O3317   1.622   .     S
Si3222 O3318   1.617   .     S
Si3222 O3352   1.626   .     S
Si3222 O3353   1.623   .     S
Si3223 O3318   1.626   .     S
Si3223 O3319   1.623   .     S
Si3223 O3328   1.625   .     S
Si3224 O3319   1.620   .     S
Si3224 O3320   1.622   .     S
Si3224 O3332   1.622   .     S
Si3224 O3333   1.627   .     S
Si3225 O3321   1.620   .     S
Si3225 O3331   1.630   .     S
Si3225 O3446   1.629   .     S
Si3225 O3491   1.621   .     S
Si3226 O3321   1.619   .     S
Si3226 O3322   1.624   .     S
Si3226 O3326   1.623   .     S
Si3226 O3327   1.622   .     S
Si3227 O3322   1.626   .     S
Si3227 O3323   1.629   .     S
Si3227 O3354   1.621   .     S
Si3227 O3493   1.624   .     S
Si3228 O3323   1.635   .     S
Si3228 O3324   1.618   .     S
Si3228 O3351   1.619   .     S
Si3228 O3494   1.625   .     S
Si3229 O3324   1.624   .     S
Si3229 O3325   1.628   .     S
Si3229 O3328   1.620   .     S
Si3230 O3325   1.626   .     S
Si3230 O3326   1.628   .     S
Si3230 O3334   1.629   .     S
Si3230 O3492   1.623   .     S
Si3231 O3337   1.623   .     S
Si3231 O3351   1.625   .     S
Si3231 O3352   1.629   .     S
Si3231 O3423   1.614   .     S
Si3232 O3337   1.618   .     S
Si3232 O3338   1.628   .     S
Si3232 O3342   1.622   .     S
Si3232 O3349   1.621   .     S
Si3233 O3333   1.624   .     S
Si3233 O3334   1.629   .     S
Si3233 O3339   1.629   .     S
Si3234 O3330   1.622   .     S
Si3234 O3331   1.626   .     S
Si3234 O3339   1.620   .     S
Si3235 O3340   1.624   .     S
Si3235 O3341   1.618   .     S
Si3235 O3350   1.618   .     S
Si3235 O3357   1.627   .     S
Si3236 O3341   1.625   .     S
Si3236 O3342   1.620   .     S
Si3236 O3354   1.624   .     S
Si3236 O3355   1.624   .     S
Si3237 O3343   1.622   .     S
Si3237 O3353   1.627   .     S
Si3237 O3424   1.629   .     S
Si3237 O3207   1.622   1_565 S
Si3238 O3343   1.617   .     S
Si3238 O3344   1.622   .     S
Si3238 O3348   1.626   .     S
Si3238 O3349   1.622   .     S
Si3239 O3332   1.621   .     S
Si3239 O3345   1.634   .     S
Si3239 O3209   1.622   1_565 S
Si3240 O3329   1.624   .     S
Si3240 O3345   1.632   .     S
Si3240 O3210   1.625   1_565 S
Si3241 O3346   1.621   .     S
Si3241 O3347   1.626   .     S
Si3241 O3350   1.627   .     S
Si3241 O3358   1.624   .     S
Si3242 O3347   1.628   .     S
Si3242 O3348   1.626   .     S
Si3242 O3356   1.626   .     S
Si3242 O3208   1.622   1_565 S
Si3243 O3359   1.619   .     S
Si3243 O3373   1.630   .     S
Si3243 O3374   1.627   .     S
Si3243 O3489   1.621   .     S
Si3244 O3359   1.622   .     S
Si3244 O3360   1.628   .     S
Si3244 O3364   1.620   .     S
Si3244 O3371   1.623   .     S
Si3245 O3360   1.625   .     S
Si3245 O3361   1.625   .     S
Si3245 O3399   1.625   .     S
Si3245 O3400   1.630   .     S
Si3246 O3361   1.621   .     S
Si3246 O3362   1.619   .     S
Si3246 O3396   1.623   .     S
Si3246 O3397   1.625   .     S
Si3247 O3362   1.627   .     S
Si3247 O3363   1.623   .     S
Si3247 O3372   1.625   .     S
Si3247 O2207   1.626   1_655 S
Si3248 O3363   1.623   .     S
Si3248 O3364   1.622   .     S
Si3248 O3376   1.624   .     S
Si3248 O3377   1.627   .     S
Si3249 O3365   1.622   .     S
Si3249 O3375   1.626   .     S
Si3249 O3490   1.631   .     S
Si3249 O3499   1.625   .     S
Si3250 O3365   1.621   .     S
Si3250 O3366   1.622   .     S
Si3250 O3370   1.626   .     S
Si3250 O3371   1.626   .     S
Si3251 O3366   1.628   .     S
Si3251 O3367   1.634   .     S
Si3251 O3398   1.624   .     S
Si3251 O3501   1.623   .     S
Si3252 O3367   1.632   .     S
Si3252 O3368   1.621   .     S
Si3252 O3395   1.624   .     S
Si3252 O3502   1.623   .     S
Si3253 O3368   1.622   .     S
Si3253 O3369   1.628   .     S
Si3253 O3372   1.624   .     S
Si3253 O2208   1.626   1_655 S
Si3254 O3369   1.630   .     S
Si3254 O3370   1.629   .     S
Si3254 O3378   1.626   .     S
Si3254 O3500   1.620   .     S
Si3255 O3381   1.621   .     S
Si3255 O3395   1.624   .     S
Si3255 O3396   1.626   .     S
Si3255 O3467   1.623   .     S
Si3256 O3381   1.620   .     S
Si3256 O3382   1.623   .     S
Si3256 O3386   1.621   .     S
Si3256 O3393   1.624   .     S
Si3257 O3377   1.627   .     S
Si3257 O3378   1.623   .     S
Si3257 O3383   1.626   .     S
Si3257 O5140   1.622   .     S
Si3258 O3374   1.628   .     S
Si3258 O3375   1.621   .     S
Si3258 O3383   1.621   .     S
Si3258 O5142   1.619   .     S
Si3259 O3384   1.626   .     S
Si3259 O3385   1.621   .     S
Si3259 O3394   1.626   .     S
Si3259 O3401   1.625   .     S
Si3260 O3385   1.623   .     S
Si3260 O3386   1.624   .     S
Si3260 O3398   1.623   .     S
Si3260 O3399   1.627   .     S
Si3261 O3387   1.623   .     S
Si3261 O3397   1.629   .     S
Si3261 O3468   1.631   .     S
Si3261 O3503   1.619   .     S
Si3262 O3387   1.619   .     S
Si3262 O3388   1.623   .     S
Si3262 O3392   1.628   .     S
Si3262 O3393   1.621   .     S
Si3263 O3376   1.621   .     S
Si3263 O3389   1.636   .     S
Si3263 O3505   1.621   .     S
Si3263 O5146   1.624   .     S
Si3264 O3373   1.622   .     S
Si3264 O3389   1.628   .     S
Si3264 O3506   1.632   .     S
Si3264 O5148   1.620   .     S
Si3265 O3390   1.626   .     S
Si3265 O3391   1.626   .     S
Si3265 O3394   1.619   .     S
Si3265 O3402   1.627   .     S
Si3266 O3391   1.629   .     S
Si3266 O3392   1.628   .     S
Si3266 O3400   1.629   .     S
Si3266 O3504   1.622   .     S
Si3267 O3357   1.606   .     S
Si3267 O3403   1.695   .     S
Si3267 O3417   1.616   .     S
Si3267 O3418   1.598   .     S
Si3268 O3404   1.593   .     S
Si3268 O3405   1.640   .     S
Si3268 O3443   1.636   .     S
Si3268 O3444   1.638   .     S
Si3269 O3405   1.622   .     S
Si3269 O3406   1.618   .     S
Si3269 O3440   1.629   .     S
Si3269 O3441   1.629   .     S
Si3270 O3406   1.627   .     S
Si3270 O3407   1.616   .     S
Si3270 O3416   1.627   .     S
Si3270 O2251   1.623   1_655 S
Si3271 O3407   1.631   .     S
Si3271 O3408   1.592   .     S
Si3271 O3420   1.635   .     S
Si3271 O3421   1.636   .     S
Si3272 O3358   1.634   .     S
Si3272 O3409   1.619   .     S
Si3272 O3419   1.634   .     S
Si3272 O3211   1.626   1_565 S
Si3273 O3409   1.634   .     S
Si3273 O3410   1.627   .     S
Si3273 O3414   1.638   .     S
Si3273 O3415   1.601   .     S
Si3274 O3410   1.617   .     S
Si3274 O3411   1.634   .     S
Si3274 O3442   1.622   .     S
Si3274 O3213   1.630   1_565 S
Si3275 O3411   1.630   .     S
Si3275 O3412   1.621   .     S
Si3275 O3439   1.621   .     S
Si3275 O3214   1.627   1_565 S
Si3276 O3412   1.625   .     S
Si3276 O3413   1.623   .     S
Si3276 O3416   1.621   .     S
Si3276 O2252   1.630   1_655 S
Si3277 O3413   1.628   .     S
Si3277 O3414   1.622   .     S
Si3277 O3422   1.625   .     S
Si3277 O3212   1.626   1_565 S
Si3278 O3335   1.622   .     S
Si3278 O3425   1.618   .     S
Si3278 O3439   1.623   .     S
Si3278 O3440   1.629   .     S
Si3279 O3425   1.618   .     S
Si3279 O3426   1.626   .     S
Si3279 O3430   1.618   .     S
Si3279 O3437   1.628   .     S
Si3280 O3421   1.619   .     S
Si3280 O3422   1.623   .     S
Si3280 O3427   1.632   .     S
Si3280 O5184   1.627   .     S
Si3281 O3418   1.636   .     S
Si3281 O3419   1.622   .     S
Si3281 O3427   1.613   .     S
Si3281 O5186   1.619   .     S
Si3282 O3428   1.627   .     S
Si3282 O3429   1.619   .     S
Si3282 O3438   1.630   .     S
Si3282 O3445   1.625   .     S
Si3283 O3429   1.628   .     S
Si3283 O3430   1.621   .     S
Si3283 O3442   1.623   .     S
Si3283 O3443   1.625   .     S
Si3284 O3336   1.631   .     S
Si3284 O3431   1.618   .     S
Si3284 O3441   1.626   .     S
Si3284 O3503   1.622   .     S
Si3285 O3431   1.616   .     S
Si3285 O3432   1.617   .     S
Si3285 O3436   1.630   .     S
Si3285 O3437   1.621   .     S
Si3286 O3420   1.611   .     S
Si3286 O3433   1.643   .     S
Si3286 O3505   1.624   .     S
Si3286 O5190   1.620   .     S
Si3287 O3417   1.632   .     S
Si3287 O3433   1.625   .     S
Si3287 O3506   1.626   .     S
Si3287 O5192   1.618   .     S
Si3288 O3434   1.628   .     S
Si3288 O3435   1.625   .     S
Si3288 O3438   1.623   .     S
Si3288 O3446   1.627   .     S
Si3289 O3435   1.633   .     S
Si3289 O3436   1.627   .     S
Si3289 O3444   1.617   .     S
Si3289 O3504   1.624   .     S
Si3290 O3401   1.622   .     S
Si3290 O3447   1.626   .     S
Si3290 O3461   1.625   .     S
Si3290 O3462   1.629   .     S
Si3291 O3447   1.624   .     S
Si3291 O3448   1.625   .     S
Si3291 O3452   1.619   .     S
Si3291 O3459   1.625   .     S
Si3292 O3448   1.623   .     S
Si3292 O3449   1.626   .     S
Si3292 O3487   1.626   .     S
Si3292 O3488   1.625   .     S
Si3293 O3449   1.624   .     S
Si3293 O3450   1.620   .     S
Si3293 O3484   1.623   .     S
Si3293 O3485   1.626   .     S
Si3294 O3450   1.628   .     S
Si3294 O3451   1.623   .     S
Si3294 O3460   1.628   .     S
Si3295 O3451   1.622   .     S
Si3295 O3452   1.622   .     S
Si3295 O3464   1.623   .     S
Si3295 O3465   1.628   .     S
Si3296 O3402   1.629   .     S
Si3296 O3453   1.623   .     S
Si3296 O3463   1.626   .     S
Si3296 O3491   1.622   .     S
Si3297 O3453   1.621   .     S
Si3297 O3454   1.618   .     S
Si3297 O3458   1.625   .     S
Si3297 O3459   1.623   .     S
Si3298 O3454   1.622   .     S
Si3298 O3455   1.630   .     S
Si3298 O3486   1.621   .     S
Si3298 O3493   1.624   .     S
Si3299 O3455   1.633   .     S
Si3299 O3456   1.623   .     S
Si3299 O3483   1.623   .     S
Si3299 O3494   1.623   .     S
Si3300 O3456   1.626   .     S
Si3300 O3457   1.629   .     S
Si3300 O3460   1.625   .     S
Si3301 O3457   1.628   .     S
Si3301 O3458   1.630   .     S
Si3301 O3466   1.626   .     S
Si3301 O3492   1.623   .     S
Si3302 O3379   1.623   .     S
Si3302 O3469   1.625   .     S
Si3302 O3483   1.628   .     S
Si3302 O3484   1.625   .     S
Si3303 O3469   1.623   .     S
Si3303 O3470   1.624   .     S
Si3303 O3474   1.622   .     S
Si3303 O3481   1.623   .     S
Si3304 O3465   1.626   .     S
Si3304 O3466   1.626   .     S
Si3304 O3471   1.628   .     S
Si3305 O3462   1.623   .     S
Si3305 O3463   1.625   .     S
Si3305 O3471   1.623   .     S
Si3306 O3472   1.627   .     S
Si3306 O3473   1.622   .     S
Si3306 O3482   1.626   .     S
Si3306 O3489   1.623   .     S
Si3307 O3473   1.621   .     S
Si3307 O3474   1.622   .     S
Si3307 O3486   1.625   .     S
Si3307 O3487   1.625   .     S
Si3308 O3380   1.628   .     S
Si3308 O3475   1.622   .     S
Si3308 O3485   1.632   .     S
Si3308 O3495   1.620   .     S
Si3309 O3475   1.617   .     S
Si3309 O3476   1.619   .     S
Si3309 O3480   1.627   .     S
Si3309 O3481   1.623   .     S
Si3310 O3464   1.622   .     S
Si3310 O3477   1.632   .     S
Si3310 O3497   1.623   .     S
Si3311 O3461   1.622   .     S
Si3311 O3477   1.631   .     S
Si3311 O3498   1.625   .     S
Si3312 O3478   1.627   .     S
Si3312 O3479   1.624   .     S
Si3312 O3482   1.625   .     S
Si3312 O3490   1.625   .     S
Si3313 O3479   1.627   .     S
Si3313 O3480   1.629   .     S
Si3313 O3488   1.626   .     S
Si3313 O3496   1.621   .     S
Al3314 O3403   1.892   .     S
Al3314 O3404   1.714   .     S
Al3314 O3408   1.703   .     S
Al3314 O3415   1.715   .     S
O3335  Si2051  1.620   1_655 S
O3336  Si2057  1.625   1_655 S
O3338  Si4991  1.623   .     S
O3340  Si4992  1.621   .     S
O3344  Si4997  1.624   .     S
O3346  Si4998  1.621   .     S
O3403  H3507   1.007   .     S
O3467  Si2122  1.623   1_655 S
O3468  Si2128  1.626   1_655 S
O3470  Si5062  1.623   .     S
O3472  Si5063  1.622   .     S
O3476  Si5068  1.621   .     S
O3478  Si5069  1.625   .     S
H3508  C3514   1.090   .     S
H3509  C3515   1.087   .     S
H3510  C3512   1.090   .     S
H3511  C3513   1.086   .     S
C3512  C3513   1.370   .     D
C3512  C3514   1.431   .     S
C3513  S3516   1.726   .     S
C3514  C3515   1.370   .     D
C3515  S3516   1.729   .     S
Si3517 O3613   1.621   .     S
Si3517 O3627   1.626   .     S
Si3517 O3628   1.629   .     S
Si3517 O3743   1.621   .     S
Si3518 O3613   1.621   .     S
Si3518 O3614   1.623   .     S
Si3518 O3618   1.617   .     S
Si3518 O3625   1.626   .     S
Si3519 O3614   1.622   .     S
Si3519 O3615   1.623   .     S
Si3519 O3653   1.627   .     S
Si3519 O3654   1.625   .     S
Si3520 O3615   1.622   .     S
Si3520 O3616   1.617   .     S
Si3520 O3650   1.626   .     S
Si3520 O3651   1.623   .     S
Si3521 O3616   1.626   .     S
Si3521 O3617   1.623   .     S
Si3521 O3626   1.625   .     S
Si3521 O4805   1.620   1_455 S
Si3522 O3617   1.620   .     S
Si3522 O3618   1.622   .     S
Si3522 O3630   1.622   .     S
Si3522 O3631   1.627   .     S
Si3523 O3619   1.620   .     S
Si3523 O3629   1.630   .     S
Si3523 O3744   1.629   .     S
Si3523 O3789   1.621   .     S
Si3524 O3619   1.619   .     S
Si3524 O3620   1.624   .     S
Si3524 O3624   1.623   .     S
Si3524 O3625   1.622   .     S
Si3525 O3620   1.626   .     S
Si3525 O3621   1.629   .     S
Si3525 O3652   1.621   .     S
Si3525 O3791   1.624   .     S
Si3526 O3621   1.635   .     S
Si3526 O3622   1.618   .     S
Si3526 O3649   1.619   .     S
Si3526 O3792   1.625   .     S
Si3527 O3622   1.624   .     S
Si3527 O3623   1.628   .     S
Si3527 O3626   1.620   .     S
Si3527 O4806   1.625   1_455 S
Si3528 O3623   1.626   .     S
Si3528 O3624   1.628   .     S
Si3528 O3632   1.629   .     S
Si3528 O3790   1.623   .     S
Si3529 O3635   1.623   .     S
Si3529 O3649   1.625   .     S
Si3529 O3650   1.629   .     S
Si3529 O3721   1.614   .     S
Si3530 O3635   1.618   .     S
Si3530 O3636   1.628   .     S
Si3530 O3640   1.622   .     S
Si3530 O3647   1.621   .     S
Si3531 O3631   1.624   .     S
Si3531 O3632   1.629   .     S
Si3531 O3637   1.629   .     S
Si3532 O3628   1.622   .     S
Si3532 O3629   1.626   .     S
Si3532 O3637   1.620   .     S
Si3533 O3638   1.624   .     S
Si3533 O3639   1.618   .     S
Si3533 O3648   1.618   .     S
Si3533 O3655   1.627   .     S
Si3534 O3639   1.625   .     S
Si3534 O3640   1.620   .     S
Si3534 O3652   1.624   .     S
Si3534 O3653   1.624   .     S
Si3535 O3641   1.622   .     S
Si3535 O3651   1.627   .     S
Si3535 O3722   1.629   .     S
Si3535 O4081   1.622   .     S
Si3536 O3641   1.617   .     S
Si3536 O3642   1.622   .     S
Si3536 O3646   1.626   .     S
Si3536 O3647   1.622   .     S
Si3537 O3630   1.621   .     S
Si3537 O3643   1.634   .     S
Si3537 O4083   1.622   .     S
Si3538 O3627   1.624   .     S
Si3538 O3643   1.632   .     S
Si3538 O4084   1.625   .     S
Si3539 O3644   1.621   .     S
Si3539 O3645   1.626   .     S
Si3539 O3648   1.627   .     S
Si3539 O3656   1.624   .     S
Si3540 O3645   1.628   .     S
Si3540 O3646   1.626   .     S
Si3540 O3654   1.626   .     S
Si3540 O4082   1.622   .     S
Si3541 O3657   1.619   .     S
Si3541 O3671   1.630   .     S
Si3541 O3672   1.627   .     S
Si3541 O3787   1.621   .     S
Si3542 O3657   1.622   .     S
Si3542 O3658   1.628   .     S
Si3542 O3662   1.620   .     S
Si3542 O3669   1.623   .     S
Si3543 O3658   1.625   .     S
Si3543 O3659   1.625   .     S
Si3543 O3697   1.625   .     S
Si3543 O3698   1.630   .     S
Si3544 O3659   1.621   .     S
Si3544 O3660   1.619   .     S
Si3544 O3694   1.623   .     S
Si3544 O3695   1.625   .     S
Si3545 O3660   1.627   .     S
Si3545 O3661   1.623   .     S
Si3545 O3670   1.625   .     S
Si3545 O4263   1.626   .     S
Si3546 O3661   1.623   .     S
Si3546 O3662   1.622   .     S
Si3546 O3674   1.624   .     S
Si3546 O3675   1.627   .     S
Si3547 O3663   1.622   .     S
Si3547 O3673   1.626   .     S
Si3547 O3788   1.631   .     S
Si3547 O3797   1.625   .     S
Si3548 O3663   1.621   .     S
Si3548 O3664   1.622   .     S
Si3548 O3668   1.626   .     S
Si3548 O3669   1.626   .     S
Si3549 O3664   1.628   .     S
Si3549 O3665   1.634   .     S
Si3549 O3696   1.624   .     S
Si3549 O3799   1.623   .     S
Si3550 O3665   1.632   .     S
Si3550 O3666   1.621   .     S
Si3550 O3693   1.624   .     S
Si3550 O3800   1.623   .     S
Si3551 O3666   1.622   .     S
Si3551 O3667   1.628   .     S
Si3551 O3670   1.624   .     S
Si3551 O4264   1.626   .     S
Si3552 O3667   1.630   .     S
Si3552 O3668   1.629   .     S
Si3552 O3676   1.626   .     S
Si3552 O3798   1.620   .     S
Si3553 O3679   1.621   .     S
Si3553 O3693   1.624   .     S
Si3553 O3694   1.626   .     S
Si3553 O3765   1.623   .     S
Si3554 O3679   1.620   .     S
Si3554 O3680   1.623   .     S
Si3554 O3684   1.621   .     S
Si3554 O3691   1.624   .     S
Si3555 O3675   1.627   .     S
Si3555 O3676   1.623   .     S
Si3555 O3681   1.626   .     S
Si3555 O164    1.622   1_556 S
Si3556 O3672   1.628   .     S
Si3556 O3673   1.621   .     S
Si3556 O3681   1.621   .     S
Si3556 O166    1.619   1_556 S
Si3557 O3682   1.626   .     S
Si3557 O3683   1.621   .     S
Si3557 O3692   1.626   .     S
Si3557 O3699   1.625   .     S
Si3558 O3683   1.623   .     S
Si3558 O3684   1.624   .     S
Si3558 O3696   1.623   .     S
Si3558 O3697   1.627   .     S
Si3559 O3685   1.623   .     S
Si3559 O3695   1.629   .     S
Si3559 O3766   1.631   .     S
Si3559 O3801   1.619   .     S
Si3560 O3685   1.619   .     S
Si3560 O3686   1.623   .     S
Si3560 O3690   1.628   .     S
Si3560 O3691   1.621   .     S
Si3561 O3674   1.621   .     S
Si3561 O3687   1.636   .     S
Si3561 O3803   1.621   .     S
Si3561 O170    1.624   1_556 S
Si3562 O3671   1.622   .     S
Si3562 O3687   1.628   .     S
Si3562 O3804   1.632   .     S
Si3562 O172    1.620   1_556 S
Si3563 O3688   1.626   .     S
Si3563 O3689   1.626   .     S
Si3563 O3692   1.619   .     S
Si3563 O3700   1.627   .     S
Si3564 O3689   1.629   .     S
Si3564 O3690   1.628   .     S
Si3564 O3698   1.629   .     S
Si3564 O3802   1.622   .     S
Si3565 O3655   1.606   .     S
Si3565 O3701   1.695   .     S
Si3565 O3715   1.616   .     S
Si3565 O3716   1.598   .     S
Si3566 O3702   1.593   .     S
Si3566 O3703   1.640   .     S
Si3566 O3741   1.636   .     S
Si3566 O3742   1.638   .     S
Si3567 O3703   1.622   .     S
Si3567 O3704   1.618   .     S
Si3567 O3738   1.629   .     S
Si3567 O3739   1.629   .     S
Si3568 O3704   1.627   .     S
Si3568 O3705   1.616   .     S
Si3568 O3714   1.627   .     S
Si3568 O4307   1.623   .     S
Si3569 O3705   1.631   .     S
Si3569 O3706   1.592   .     S
Si3569 O3718   1.635   .     S
Si3569 O3719   1.636   .     S
Si3570 O3656   1.634   .     S
Si3570 O3707   1.619   .     S
Si3570 O3717   1.634   .     S
Si3570 O4085   1.626   .     S
Si3571 O3707   1.634   .     S
Si3571 O3708   1.627   .     S
Si3571 O3712   1.638   .     S
Si3571 O3713   1.601   .     S
Si3572 O3708   1.617   .     S
Si3572 O3709   1.634   .     S
Si3572 O3740   1.622   .     S
Si3572 O4087   1.630   .     S
Si3573 O3709   1.630   .     S
Si3573 O3710   1.621   .     S
Si3573 O3737   1.621   .     S
Si3573 O4088   1.627   .     S
Si3574 O3710   1.625   .     S
Si3574 O3711   1.623   .     S
Si3574 O3714   1.621   .     S
Si3574 O4308   1.630   .     S
Si3575 O3711   1.628   .     S
Si3575 O3712   1.622   .     S
Si3575 O3720   1.625   .     S
Si3575 O4086   1.626   .     S
Si3576 O3633   1.622   .     S
Si3576 O3723   1.618   .     S
Si3576 O3737   1.623   .     S
Si3576 O3738   1.629   .     S
Si3577 O3723   1.618   .     S
Si3577 O3724   1.626   .     S
Si3577 O3728   1.618   .     S
Si3577 O3735   1.628   .     S
Si3578 O3719   1.619   .     S
Si3578 O3720   1.623   .     S
Si3578 O3725   1.632   .     S
Si3578 O208    1.627   1_556 S
Si3579 O3716   1.636   .     S
Si3579 O3717   1.622   .     S
Si3579 O3725   1.613   .     S
Si3579 O210    1.619   1_556 S
Si3580 O3726   1.627   .     S
Si3580 O3727   1.619   .     S
Si3580 O3736   1.630   .     S
Si3580 O3743   1.625   .     S
Si3581 O3727   1.628   .     S
Si3581 O3728   1.621   .     S
Si3581 O3740   1.623   .     S
Si3581 O3741   1.625   .     S
Si3582 O3634   1.631   .     S
Si3582 O3729   1.618   .     S
Si3582 O3739   1.626   .     S
Si3582 O3801   1.622   .     S
Si3583 O3729   1.616   .     S
Si3583 O3730   1.617   .     S
Si3583 O3734   1.630   .     S
Si3583 O3735   1.621   .     S
Si3584 O3718   1.611   .     S
Si3584 O3731   1.643   .     S
Si3584 O3803   1.624   .     S
Si3584 O214    1.620   1_556 S
Si3585 O3715   1.632   .     S
Si3585 O3731   1.625   .     S
Si3585 O3804   1.626   .     S
Si3585 O216    1.618   1_556 S
Si3586 O3732   1.628   .     S
Si3586 O3733   1.625   .     S
Si3586 O3736   1.623   .     S
Si3586 O3744   1.627   .     S
Si3587 O3733   1.633   .     S
Si3587 O3734   1.627   .     S
Si3587 O3742   1.617   .     S
Si3587 O3802   1.624   .     S
Si3588 O3699   1.622   .     S
Si3588 O3745   1.626   .     S
Si3588 O3759   1.625   .     S
Si3588 O3760   1.629   .     S
Si3589 O3745   1.624   .     S
Si3589 O3746   1.625   .     S
Si3589 O3750   1.619   .     S
Si3589 O3757   1.625   .     S
Si3590 O3746   1.623   .     S
Si3590 O3747   1.626   .     S
Si3590 O3785   1.626   .     S
Si3590 O3786   1.625   .     S
Si3591 O3747   1.624   .     S
Si3591 O3748   1.620   .     S
Si3591 O3782   1.623   .     S
Si3591 O3783   1.626   .     S
Si3592 O3748   1.628   .     S
Si3592 O3749   1.623   .     S
Si3592 O3758   1.628   .     S
Si3592 O4937   1.623   1_455 S
Si3593 O3749   1.622   .     S
Si3593 O3750   1.622   .     S
Si3593 O3762   1.623   .     S
Si3593 O3763   1.628   .     S
Si3594 O3700   1.629   .     S
Si3594 O3751   1.623   .     S
Si3594 O3761   1.626   .     S
Si3594 O3789   1.622   .     S
Si3595 O3751   1.621   .     S
Si3595 O3752   1.618   .     S
Si3595 O3756   1.625   .     S
Si3595 O3757   1.623   .     S
Si3596 O3752   1.622   .     S
Si3596 O3753   1.630   .     S
Si3596 O3784   1.621   .     S
Si3596 O3791   1.624   .     S
Si3597 O3753   1.633   .     S
Si3597 O3754   1.623   .     S
Si3597 O3781   1.623   .     S
Si3597 O3792   1.623   .     S
Si3598 O3754   1.626   .     S
Si3598 O3755   1.629   .     S
Si3598 O3758   1.625   .     S
Si3598 O4938   1.626   1_455 S
Si3599 O3755   1.628   .     S
Si3599 O3756   1.630   .     S
Si3599 O3764   1.626   .     S
Si3599 O3790   1.623   .     S
Si3600 O3677   1.623   .     S
Si3600 O3767   1.625   .     S
Si3600 O3781   1.628   .     S
Si3600 O3782   1.625   .     S
Si3601 O3767   1.623   .     S
Si3601 O3768   1.624   .     S
Si3601 O3772   1.622   .     S
Si3601 O3779   1.623   .     S
Si3602 O3763   1.626   .     S
Si3602 O3764   1.626   .     S
Si3602 O3769   1.628   .     S
Si3603 O3760   1.623   .     S
Si3603 O3761   1.625   .     S
Si3603 O3769   1.623   .     S
Si3604 O3770   1.627   .     S
Si3604 O3771   1.622   .     S
Si3604 O3780   1.626   .     S
Si3604 O3787   1.623   .     S
Si3605 O3771   1.621   .     S
Si3605 O3772   1.622   .     S
Si3605 O3784   1.625   .     S
Si3605 O3785   1.625   .     S
Si3606 O3678   1.628   .     S
Si3606 O3773   1.622   .     S
Si3606 O3783   1.632   .     S
Si3606 O3793   1.620   .     S
Si3607 O3773   1.617   .     S
Si3607 O3774   1.619   .     S
Si3607 O3778   1.627   .     S
Si3607 O3779   1.623   .     S
Si3608 O3762   1.622   .     S
Si3608 O3775   1.632   .     S
Si3608 O3795   1.623   .     S
Si3609 O3759   1.622   .     S
Si3609 O3775   1.631   .     S
Si3609 O3796   1.625   .     S
Si3610 O3776   1.627   .     S
Si3610 O3777   1.624   .     S
Si3610 O3780   1.625   .     S
Si3610 O3788   1.625   .     S
Si3611 O3777   1.627   .     S
Si3611 O3778   1.629   .     S
Si3611 O3786   1.626   .     S
Si3611 O3794   1.621   .     S
Al3612 O3701   1.892   .     S
Al3612 O3702   1.714   .     S
Al3612 O3706   1.703   .     S
Al3612 O3713   1.715   .     S
O3633  Si4107  1.620   .     S
O3634  Si4113  1.625   .     S
O3636  Si15    1.623   1_556 S
O3638  Si16    1.621   1_556 S
O3642  Si21    1.624   1_556 S
O3644  Si22    1.621   1_556 S
O3677  Si4717  1.626   1_455 S
O3678  Si4723  1.626   1_455 S
O3721  Si4740  1.623   1_455 S
O3722  Si4746  1.630   1_455 S
O3765  Si4178  1.623   .     S
O3766  Si4184  1.626   .     S
O3768  Si86    1.623   1_556 S
O3770  Si87    1.622   1_556 S
O3774  Si92    1.621   1_556 S
O3776  Si93    1.625   1_556 S
O3793  Si3823  1.622   1_545 S
O3794  Si3828  1.622   1_545 S
O3795  Si3825  1.622   1_545 S
O3796  Si3826  1.625   1_545 S
O3797  Si3858  1.626   1_545 S
O3798  Si3863  1.626   1_545 S
O3799  Si3860  1.630   1_545 S
O3800  Si3861  1.627   1_545 S
Si3805 O3901   1.621   .     S
Si3805 O3915   1.626   .     S
Si3805 O3916   1.629   .     S
Si3805 O4031   1.621   .     S
Si3806 O3901   1.621   .     S
Si3806 O3902   1.623   .     S
Si3806 O3906   1.617   .     S
Si3806 O3913   1.626   .     S
Si3807 O3902   1.622   .     S
Si3807 O3903   1.623   .     S
Si3807 O3941   1.627   .     S
Si3807 O3942   1.625   .     S
Si3808 O3903   1.622   .     S
Si3808 O3904   1.617   .     S
Si3808 O3938   1.626   .     S
Si3808 O3939   1.623   .     S
Si3809 O3904   1.626   .     S
Si3809 O3905   1.623   .     S
Si3809 O3914   1.625   .     S
Si3809 O5093   1.620   1_455 S
Si3810 O3905   1.620   .     S
Si3810 O3906   1.622   .     S
Si3810 O3918   1.622   .     S
Si3810 O3919   1.627   .     S
Si3811 O3907   1.620   .     S
Si3811 O3917   1.630   .     S
Si3811 O4032   1.629   .     S
Si3811 O4077   1.621   .     S
Si3812 O3907   1.619   .     S
Si3812 O3908   1.624   .     S
Si3812 O3912   1.623   .     S
Si3812 O3913   1.622   .     S
Si3813 O3908   1.626   .     S
Si3813 O3909   1.629   .     S
Si3813 O3940   1.621   .     S
Si3813 O4079   1.624   .     S
Si3814 O3909   1.635   .     S
Si3814 O3910   1.618   .     S
Si3814 O3937   1.619   .     S
Si3814 O4080   1.625   .     S
Si3815 O3910   1.624   .     S
Si3815 O3911   1.628   .     S
Si3815 O3914   1.620   .     S
Si3815 O5094   1.625   1_455 S
Si3816 O3911   1.626   .     S
Si3816 O3912   1.628   .     S
Si3816 O3920   1.629   .     S
Si3816 O4078   1.623   .     S
Si3817 O3923   1.623   .     S
Si3817 O3937   1.625   .     S
Si3817 O3938   1.629   .     S
Si3817 O4009   1.614   .     S
Si3818 O3923   1.618   .     S
Si3818 O3924   1.628   .     S
Si3818 O3928   1.622   .     S
Si3818 O3935   1.621   .     S
Si3819 O3919   1.624   .     S
Si3819 O3920   1.629   .     S
Si3819 O3925   1.629   .     S
Si3820 O3916   1.622   .     S
Si3820 O3917   1.626   .     S
Si3820 O3925   1.620   .     S
Si3821 O3926   1.624   .     S
Si3821 O3927   1.618   .     S
Si3821 O3936   1.618   .     S
Si3821 O3943   1.627   .     S
Si3822 O3927   1.625   .     S
Si3822 O3928   1.620   .     S
Si3822 O3940   1.624   .     S
Si3822 O3941   1.624   .     S
Si3823 O3929   1.622   .     S
Si3823 O3939   1.627   .     S
Si3823 O4010   1.629   .     S
Si3823 O3793   1.622   1_565 S
Si3824 O3929   1.617   .     S
Si3824 O3930   1.622   .     S
Si3824 O3934   1.626   .     S
Si3824 O3935   1.622   .     S
Si3825 O3918   1.621   .     S
Si3825 O3931   1.634   .     S
Si3825 O3795   1.622   1_565 S
Si3826 O3915   1.624   .     S
Si3826 O3931   1.632   .     S
Si3826 O3796   1.625   1_565 S
Si3827 O3932   1.621   .     S
Si3827 O3933   1.626   .     S
Si3827 O3936   1.627   .     S
Si3827 O3944   1.624   .     S
Si3828 O3933   1.628   .     S
Si3828 O3934   1.626   .     S
Si3828 O3942   1.626   .     S
Si3828 O3794   1.622   1_565 S
Si3829 O3945   1.619   .     S
Si3829 O3959   1.630   .     S
Si3829 O3960   1.627   .     S
Si3829 O4075   1.621   .     S
Si3830 O3945   1.622   .     S
Si3830 O3946   1.628   .     S
Si3830 O3950   1.620   .     S
Si3830 O3957   1.623   .     S
Si3831 O3946   1.625   .     S
Si3831 O3947   1.625   .     S
Si3831 O3985   1.625   .     S
Si3831 O3986   1.630   .     S
Si3832 O3947   1.621   .     S
Si3832 O3948   1.619   .     S
Si3832 O3982   1.623   .     S
Si3832 O3983   1.625   .     S
Si3833 O3948   1.627   .     S
Si3833 O3949   1.623   .     S
Si3833 O3958   1.625   .     S
Si3833 O4551   1.626   .     S
Si3834 O3949   1.623   .     S
Si3834 O3950   1.622   .     S
Si3834 O3962   1.624   .     S
Si3834 O3963   1.627   .     S
Si3835 O3951   1.622   .     S
Si3835 O3961   1.626   .     S
Si3835 O4076   1.631   .     S
Si3835 O4085   1.625   .     S
Si3836 O3951   1.621   .     S
Si3836 O3952   1.622   .     S
Si3836 O3956   1.626   .     S
Si3836 O3957   1.626   .     S
Si3837 O3952   1.628   .     S
Si3837 O3953   1.634   .     S
Si3837 O3984   1.624   .     S
Si3837 O4087   1.623   .     S
Si3838 O3953   1.632   .     S
Si3838 O3954   1.621   .     S
Si3838 O3981   1.624   .     S
Si3838 O4088   1.623   .     S
Si3839 O3954   1.622   .     S
Si3839 O3955   1.628   .     S
Si3839 O3958   1.624   .     S
Si3839 O4552   1.626   .     S
Si3840 O3955   1.630   .     S
Si3840 O3956   1.629   .     S
Si3840 O3964   1.626   .     S
Si3840 O4086   1.620   .     S
Si3841 O3967   1.621   .     S
Si3841 O3981   1.624   .     S
Si3841 O3982   1.626   .     S
Si3841 O4053   1.623   .     S
Si3842 O3967   1.620   .     S
Si3842 O3968   1.623   .     S
Si3842 O3972   1.621   .     S
Si3842 O3979   1.624   .     S
Si3843 O3963   1.627   .     S
Si3843 O3964   1.623   .     S
Si3843 O3969   1.626   .     S
Si3843 O452    1.622   1_556 S
Si3844 O3960   1.628   .     S
Si3844 O3961   1.621   .     S
Si3844 O3969   1.621   .     S
Si3844 O454    1.619   1_556 S
Si3845 O3970   1.626   .     S
Si3845 O3971   1.621   .     S
Si3845 O3980   1.626   .     S
Si3845 O3987   1.625   .     S
Si3846 O3971   1.623   .     S
Si3846 O3972   1.624   .     S
Si3846 O3984   1.623   .     S
Si3846 O3985   1.627   .     S
Si3847 O3973   1.623   .     S
Si3847 O3983   1.629   .     S
Si3847 O4054   1.631   .     S
Si3847 O4089   1.619   .     S
Si3848 O3973   1.619   .     S
Si3848 O3974   1.623   .     S
Si3848 O3978   1.628   .     S
Si3848 O3979   1.621   .     S
Si3849 O3962   1.621   .     S
Si3849 O3975   1.636   .     S
Si3849 O4091   1.621   .     S
Si3849 O458    1.624   1_556 S
Si3850 O3959   1.622   .     S
Si3850 O3975   1.628   .     S
Si3850 O4092   1.632   .     S
Si3850 O460    1.620   1_556 S
Si3851 O3976   1.626   .     S
Si3851 O3977   1.626   .     S
Si3851 O3980   1.619   .     S
Si3851 O3988   1.627   .     S
Si3852 O3977   1.629   .     S
Si3852 O3978   1.628   .     S
Si3852 O3986   1.629   .     S
Si3852 O4090   1.622   .     S
Si3853 O3943   1.606   .     S
Si3853 O3989   1.695   .     S
Si3853 O4003   1.616   .     S
Si3853 O4004   1.598   .     S
Si3854 O3990   1.593   .     S
Si3854 O3991   1.640   .     S
Si3854 O4029   1.636   .     S
Si3854 O4030   1.638   .     S
Si3855 O3991   1.622   .     S
Si3855 O3992   1.618   .     S
Si3855 O4026   1.629   .     S
Si3855 O4027   1.629   .     S
Si3856 O3992   1.627   .     S
Si3856 O3993   1.616   .     S
Si3856 O4002   1.627   .     S
Si3856 O4595   1.623   .     S
Si3857 O3993   1.631   .     S
Si3857 O3994   1.592   .     S
Si3857 O4006   1.635   .     S
Si3857 O4007   1.636   .     S
Si3858 O3944   1.634   .     S
Si3858 O3995   1.619   .     S
Si3858 O4005   1.634   .     S
Si3858 O3797   1.626   1_565 S
Si3859 O3995   1.634   .     S
Si3859 O3996   1.627   .     S
Si3859 O4000   1.638   .     S
Si3859 O4001   1.601   .     S
Si3860 O3996   1.617   .     S
Si3860 O3997   1.634   .     S
Si3860 O4028   1.622   .     S
Si3860 O3799   1.630   1_565 S
Si3861 O3997   1.630   .     S
Si3861 O3998   1.621   .     S
Si3861 O4025   1.621   .     S
Si3861 O3800   1.627   1_565 S
Si3862 O3998   1.625   .     S
Si3862 O3999   1.623   .     S
Si3862 O4002   1.621   .     S
Si3862 O4596   1.630   .     S
Si3863 O3999   1.628   .     S
Si3863 O4000   1.622   .     S
Si3863 O4008   1.625   .     S
Si3863 O3798   1.626   1_565 S
Si3864 O3921   1.622   .     S
Si3864 O4011   1.618   .     S
Si3864 O4025   1.623   .     S
Si3864 O4026   1.629   .     S
Si3865 O4011   1.618   .     S
Si3865 O4012   1.626   .     S
Si3865 O4016   1.618   .     S
Si3865 O4023   1.628   .     S
Si3866 O4007   1.619   .     S
Si3866 O4008   1.623   .     S
Si3866 O4013   1.632   .     S
Si3866 O496    1.627   1_556 S
Si3867 O4004   1.636   .     S
Si3867 O4005   1.622   .     S
Si3867 O4013   1.613   .     S
Si3867 O498    1.619   1_556 S
Si3868 O4014   1.627   .     S
Si3868 O4015   1.619   .     S
Si3868 O4024   1.630   .     S
Si3868 O4031   1.625   .     S
Si3869 O4015   1.628   .     S
Si3869 O4016   1.621   .     S
Si3869 O4028   1.623   .     S
Si3869 O4029   1.625   .     S
Si3870 O3922   1.631   .     S
Si3870 O4017   1.618   .     S
Si3870 O4027   1.626   .     S
Si3870 O4089   1.622   .     S
Si3871 O4017   1.616   .     S
Si3871 O4018   1.617   .     S
Si3871 O4022   1.630   .     S
Si3871 O4023   1.621   .     S
Si3872 O4006   1.611   .     S
Si3872 O4019   1.643   .     S
Si3872 O4091   1.624   .     S
Si3872 O502    1.620   1_556 S
Si3873 O4003   1.632   .     S
Si3873 O4019   1.625   .     S
Si3873 O4092   1.626   .     S
Si3873 O504    1.618   1_556 S
Si3874 O4020   1.628   .     S
Si3874 O4021   1.625   .     S
Si3874 O4024   1.623   .     S
Si3874 O4032   1.627   .     S
Si3875 O4021   1.633   .     S
Si3875 O4022   1.627   .     S
Si3875 O4030   1.617   .     S
Si3875 O4090   1.624   .     S
Si3876 O3987   1.622   .     S
Si3876 O4033   1.626   .     S
Si3876 O4047   1.625   .     S
Si3876 O4048   1.629   .     S
Si3877 O4033   1.624   .     S
Si3877 O4034   1.625   .     S
Si3877 O4038   1.619   .     S
Si3877 O4045   1.625   .     S
Si3878 O4034   1.623   .     S
Si3878 O4035   1.626   .     S
Si3878 O4073   1.626   .     S
Si3878 O4074   1.625   .     S
Si3879 O4035   1.624   .     S
Si3879 O4036   1.620   .     S
Si3879 O4070   1.623   .     S
Si3879 O4071   1.626   .     S
Si3880 O4036   1.628   .     S
Si3880 O4037   1.623   .     S
Si3880 O4046   1.628   .     S
Si3880 O5225   1.623   1_455 S
Si3881 O4037   1.622   .     S
Si3881 O4038   1.622   .     S
Si3881 O4050   1.623   .     S
Si3881 O4051   1.628   .     S
Si3882 O3988   1.629   .     S
Si3882 O4039   1.623   .     S
Si3882 O4049   1.626   .     S
Si3882 O4077   1.622   .     S
Si3883 O4039   1.621   .     S
Si3883 O4040   1.618   .     S
Si3883 O4044   1.625   .     S
Si3883 O4045   1.623   .     S
Si3884 O4040   1.622   .     S
Si3884 O4041   1.630   .     S
Si3884 O4072   1.621   .     S
Si3884 O4079   1.624   .     S
Si3885 O4041   1.633   .     S
Si3885 O4042   1.623   .     S
Si3885 O4069   1.623   .     S
Si3885 O4080   1.623   .     S
Si3886 O4042   1.626   .     S
Si3886 O4043   1.629   .     S
Si3886 O4046   1.625   .     S
Si3886 O5226   1.626   1_455 S
Si3887 O4043   1.628   .     S
Si3887 O4044   1.630   .     S
Si3887 O4052   1.626   .     S
Si3887 O4078   1.623   .     S
Si3888 O3965   1.623   .     S
Si3888 O4055   1.625   .     S
Si3888 O4069   1.628   .     S
Si3888 O4070   1.625   .     S
Si3889 O4055   1.623   .     S
Si3889 O4056   1.624   .     S
Si3889 O4060   1.622   .     S
Si3889 O4067   1.623   .     S
Si3890 O4051   1.626   .     S
Si3890 O4052   1.626   .     S
Si3890 O4057   1.628   .     S
Si3891 O4048   1.623   .     S
Si3891 O4049   1.625   .     S
Si3891 O4057   1.623   .     S
Si3892 O4058   1.627   .     S
Si3892 O4059   1.622   .     S
Si3892 O4068   1.626   .     S
Si3892 O4075   1.623   .     S
Si3893 O4059   1.621   .     S
Si3893 O4060   1.622   .     S
Si3893 O4072   1.625   .     S
Si3893 O4073   1.625   .     S
Si3894 O3966   1.628   .     S
Si3894 O4061   1.622   .     S
Si3894 O4071   1.632   .     S
Si3894 O4081   1.620   .     S
Si3895 O4061   1.617   .     S
Si3895 O4062   1.619   .     S
Si3895 O4066   1.627   .     S
Si3895 O4067   1.623   .     S
Si3896 O4050   1.622   .     S
Si3896 O4063   1.632   .     S
Si3896 O4083   1.623   .     S
Si3897 O4047   1.622   .     S
Si3897 O4063   1.631   .     S
Si3897 O4084   1.625   .     S
Si3898 O4064   1.627   .     S
Si3898 O4065   1.624   .     S
Si3898 O4068   1.625   .     S
Si3898 O4076   1.625   .     S
Si3899 O4065   1.627   .     S
Si3899 O4066   1.629   .     S
Si3899 O4074   1.626   .     S
Si3899 O4082   1.621   .     S
Al3900 O3989   1.892   .     S
Al3900 O3990   1.714   .     S
Al3900 O3994   1.703   .     S
Al3900 O4001   1.715   .     S
O3921  Si4395  1.620   .     S
O3922  Si4401  1.625   .     S
O3924  Si303   1.623   1_556 S
O3926  Si304   1.621   1_556 S
O3930  Si309   1.624   1_556 S
O3932  Si310   1.621   1_556 S
O3965  Si5005  1.626   1_455 S
O3966  Si5011  1.626   1_455 S
O3989  H4093   1.007   .     S
O4009  Si5028  1.623   1_455 S
O4010  Si5034  1.630   1_455 S
O4053  Si4466  1.623   .     S
O4054  Si4472  1.626   .     S
O4056  Si374   1.623   1_556 S
O4058  Si375   1.622   1_556 S
O4062  Si380   1.621   1_556 S
O4064  Si381   1.625   1_556 S
H4094  C4100   1.090   .     S
H4095  C4101   1.087   .     S
H4096  C4098   1.090   .     S
H4097  C4099   1.086   .     S
C4098  C4099   1.370   .     D
C4098  C4100   1.431   .     S
C4099  S4102   1.726   .     S
C4100  C4101   1.370   .     D
C4101  S4102   1.729   .     S
Si4103 O4199   1.621   .     S
Si4103 O4213   1.626   .     S
Si4103 O4214   1.629   .     S
Si4103 O4329   1.621   .     S
Si4104 O4199   1.621   .     S
Si4104 O4200   1.623   .     S
Si4104 O4204   1.617   .     S
Si4104 O4211   1.626   .     S
Si4105 O4200   1.622   .     S
Si4105 O4201   1.623   .     S
Si4105 O4239   1.627   .     S
Si4105 O4240   1.625   .     S
Si4106 O4201   1.622   .     S
Si4106 O4202   1.617   .     S
Si4106 O4236   1.626   .     S
Si4106 O4237   1.623   .     S
Si4107 O4202   1.626   .     S
Si4107 O4203   1.623   .     S
Si4107 O4212   1.625   .     S
Si4108 O4203   1.620   .     S
Si4108 O4204   1.622   .     S
Si4108 O4216   1.622   .     S
Si4108 O4217   1.627   .     S
Si4109 O4205   1.620   .     S
Si4109 O4215   1.630   .     S
Si4109 O4330   1.629   .     S
Si4109 O4375   1.621   .     S
Si4110 O4205   1.619   .     S
Si4110 O4206   1.624   .     S
Si4110 O4210   1.623   .     S
Si4110 O4211   1.622   .     S
Si4111 O4206   1.626   .     S
Si4111 O4207   1.629   .     S
Si4111 O4238   1.621   .     S
Si4111 O4377   1.624   .     S
Si4112 O4207   1.635   .     S
Si4112 O4208   1.618   .     S
Si4112 O4235   1.619   .     S
Si4112 O4378   1.625   .     S
Si4113 O4208   1.624   .     S
Si4113 O4209   1.628   .     S
Si4113 O4212   1.620   .     S
Si4114 O4209   1.626   .     S
Si4114 O4210   1.628   .     S
Si4114 O4218   1.629   .     S
Si4114 O4376   1.623   .     S
Si4115 O4221   1.623   .     S
Si4115 O4235   1.625   .     S
Si4115 O4236   1.629   .     S
Si4115 O4307   1.614   .     S
Si4116 O4221   1.618   .     S
Si4116 O4222   1.628   .     S
Si4116 O4226   1.622   .     S
Si4116 O4233   1.621   .     S
Si4117 O4217   1.624   .     S
Si4117 O4218   1.629   .     S
Si4117 O4223   1.629   .     S
Si4118 O4214   1.622   .     S
Si4118 O4215   1.626   .     S
Si4118 O4223   1.620   .     S
Si4119 O4224   1.624   .     S
Si4119 O4225   1.618   .     S
Si4119 O4234   1.618   .     S
Si4119 O4241   1.627   .     S
Si4120 O4225   1.625   .     S
Si4120 O4226   1.620   .     S
Si4120 O4238   1.624   .     S
Si4120 O4239   1.624   .     S
Si4121 O4227   1.622   .     S
Si4121 O4237   1.627   .     S
Si4121 O4308   1.629   .     S
Si4121 O4667   1.622   .     S
Si4122 O4227   1.617   .     S
Si4122 O4228   1.622   .     S
Si4122 O4232   1.626   .     S
Si4122 O4233   1.622   .     S
Si4123 O4216   1.621   .     S
Si4123 O4229   1.634   .     S
Si4123 O4669   1.622   .     S
Si4124 O4213   1.624   .     S
Si4124 O4229   1.632   .     S
Si4124 O4670   1.625   .     S
Si4125 O4230   1.621   .     S
Si4125 O4231   1.626   .     S
Si4125 O4234   1.627   .     S
Si4125 O4242   1.624   .     S
Si4126 O4231   1.628   .     S
Si4126 O4232   1.626   .     S
Si4126 O4240   1.626   .     S
Si4126 O4668   1.622   .     S
Si4127 O4243   1.619   .     S
Si4127 O4257   1.630   .     S
Si4127 O4258   1.627   .     S
Si4127 O4373   1.621   .     S
Si4128 O4243   1.622   .     S
Si4128 O4244   1.628   .     S
Si4128 O4248   1.620   .     S
Si4128 O4255   1.623   .     S
Si4129 O4244   1.625   .     S
Si4129 O4245   1.625   .     S
Si4129 O4283   1.625   .     S
Si4129 O4284   1.630   .     S
Si4130 O4245   1.621   .     S
Si4130 O4246   1.619   .     S
Si4130 O4280   1.623   .     S
Si4130 O4281   1.625   .     S
Si4131 O4246   1.627   .     S
Si4131 O4247   1.623   .     S
Si4131 O4256   1.625   .     S
Si4131 O4849   1.626   .     S
Si4132 O4247   1.623   .     S
Si4132 O4248   1.622   .     S
Si4132 O4260   1.624   .     S
Si4132 O4261   1.627   .     S
Si4133 O4249   1.622   .     S
Si4133 O4259   1.626   .     S
Si4133 O4374   1.631   .     S
Si4133 O4383   1.625   .     S
Si4134 O4249   1.621   .     S
Si4134 O4250   1.622   .     S
Si4134 O4254   1.626   .     S
Si4134 O4255   1.626   .     S
Si4135 O4250   1.628   .     S
Si4135 O4251   1.634   .     S
Si4135 O4282   1.624   .     S
Si4135 O4385   1.623   .     S
Si4136 O4251   1.632   .     S
Si4136 O4252   1.621   .     S
Si4136 O4279   1.624   .     S
Si4136 O4386   1.623   .     S
Si4137 O4252   1.622   .     S
Si4137 O4253   1.628   .     S
Si4137 O4256   1.624   .     S
Si4137 O4850   1.626   .     S
Si4138 O4253   1.630   .     S
Si4138 O4254   1.629   .     S
Si4138 O4262   1.626   .     S
Si4138 O4384   1.620   .     S
Si4139 O4265   1.621   .     S
Si4139 O4279   1.624   .     S
Si4139 O4280   1.626   .     S
Si4139 O4351   1.623   .     S
Si4140 O4265   1.620   .     S
Si4140 O4266   1.623   .     S
Si4140 O4270   1.621   .     S
Si4140 O4277   1.624   .     S
Si4141 O4261   1.627   .     S
Si4141 O4262   1.623   .     S
Si4141 O4267   1.626   .     S
Si4141 O750    1.622   1_556 S
Si4142 O4258   1.628   .     S
Si4142 O4259   1.621   .     S
Si4142 O4267   1.621   .     S
Si4142 O752    1.619   1_556 S
Si4143 O4268   1.626   .     S
Si4143 O4269   1.621   .     S
Si4143 O4278   1.626   .     S
Si4143 O4285   1.625   .     S
Si4144 O4269   1.623   .     S
Si4144 O4270   1.624   .     S
Si4144 O4282   1.623   .     S
Si4144 O4283   1.627   .     S
Si4145 O4271   1.623   .     S
Si4145 O4281   1.629   .     S
Si4145 O4352   1.631   .     S
Si4145 O4387   1.619   .     S
Si4146 O4271   1.619   .     S
Si4146 O4272   1.623   .     S
Si4146 O4276   1.628   .     S
Si4146 O4277   1.621   .     S
Si4147 O4260   1.621   .     S
Si4147 O4273   1.636   .     S
Si4147 O4389   1.621   .     S
Si4147 O756    1.624   1_556 S
Si4148 O4257   1.622   .     S
Si4148 O4273   1.628   .     S
Si4148 O4390   1.632   .     S
Si4148 O758    1.620   1_556 S
Si4149 O4274   1.626   .     S
Si4149 O4275   1.626   .     S
Si4149 O4278   1.619   .     S
Si4149 O4286   1.627   .     S
Si4150 O4275   1.629   .     S
Si4150 O4276   1.628   .     S
Si4150 O4284   1.629   .     S
Si4150 O4388   1.622   .     S
Si4151 O4241   1.606   .     S
Si4151 O4287   1.695   .     S
Si4151 O4301   1.616   .     S
Si4151 O4302   1.598   .     S
Si4152 O4288   1.593   .     S
Si4152 O4289   1.640   .     S
Si4152 O4327   1.636   .     S
Si4152 O4328   1.638   .     S
Si4153 O4289   1.622   .     S
Si4153 O4290   1.618   .     S
Si4153 O4324   1.629   .     S
Si4153 O4325   1.629   .     S
Si4154 O4290   1.627   .     S
Si4154 O4291   1.616   .     S
Si4154 O4300   1.627   .     S
Si4154 O4893   1.623   .     S
Si4155 O4291   1.631   .     S
Si4155 O4292   1.592   .     S
Si4155 O4304   1.635   .     S
Si4155 O4305   1.636   .     S
Si4156 O4242   1.634   .     S
Si4156 O4293   1.619   .     S
Si4156 O4303   1.634   .     S
Si4156 O4671   1.626   .     S
Si4157 O4293   1.634   .     S
Si4157 O4294   1.627   .     S
Si4157 O4298   1.638   .     S
Si4157 O4299   1.601   .     S
Si4158 O4294   1.617   .     S
Si4158 O4295   1.634   .     S
Si4158 O4326   1.622   .     S
Si4158 O4673   1.630   .     S
Si4159 O4295   1.630   .     S
Si4159 O4296   1.621   .     S
Si4159 O4323   1.621   .     S
Si4159 O4674   1.627   .     S
Si4160 O4296   1.625   .     S
Si4160 O4297   1.623   .     S
Si4160 O4300   1.621   .     S
Si4160 O4894   1.630   .     S
Si4161 O4297   1.628   .     S
Si4161 O4298   1.622   .     S
Si4161 O4306   1.625   .     S
Si4161 O4672   1.626   .     S
Si4162 O4219   1.622   .     S
Si4162 O4309   1.618   .     S
Si4162 O4323   1.623   .     S
Si4162 O4324   1.629   .     S
Si4163 O4309   1.618   .     S
Si4163 O4310   1.626   .     S
Si4163 O4314   1.618   .     S
Si4163 O4321   1.628   .     S
Si4164 O4305   1.619   .     S
Si4164 O4306   1.623   .     S
Si4164 O4311   1.632   .     S
Si4164 O794    1.627   1_556 S
Si4165 O4302   1.636   .     S
Si4165 O4303   1.622   .     S
Si4165 O4311   1.613   .     S
Si4165 O796    1.619   1_556 S
Si4166 O4312   1.627   .     S
Si4166 O4313   1.619   .     S
Si4166 O4322   1.630   .     S
Si4166 O4329   1.625   .     S
Si4167 O4313   1.628   .     S
Si4167 O4314   1.621   .     S
Si4167 O4326   1.623   .     S
Si4167 O4327   1.625   .     S
Si4168 O4220   1.631   .     S
Si4168 O4315   1.618   .     S
Si4168 O4325   1.626   .     S
Si4168 O4387   1.622   .     S
Si4169 O4315   1.616   .     S
Si4169 O4316   1.617   .     S
Si4169 O4320   1.630   .     S
Si4169 O4321   1.621   .     S
Si4170 O4304   1.611   .     S
Si4170 O4317   1.643   .     S
Si4170 O4389   1.624   .     S
Si4170 O800    1.620   1_556 S
Si4171 O4301   1.632   .     S
Si4171 O4317   1.625   .     S
Si4171 O4390   1.626   .     S
Si4171 O802    1.618   1_556 S
Si4172 O4318   1.628   .     S
Si4172 O4319   1.625   .     S
Si4172 O4322   1.623   .     S
Si4172 O4330   1.627   .     S
Si4173 O4319   1.633   .     S
Si4173 O4320   1.627   .     S
Si4173 O4328   1.617   .     S
Si4173 O4388   1.624   .     S
Si4174 O4285   1.622   .     S
Si4174 O4331   1.626   .     S
Si4174 O4345   1.625   .     S
Si4174 O4346   1.629   .     S
Si4175 O4331   1.624   .     S
Si4175 O4332   1.625   .     S
Si4175 O4336   1.619   .     S
Si4175 O4343   1.625   .     S
Si4176 O4332   1.623   .     S
Si4176 O4333   1.626   .     S
Si4176 O4371   1.626   .     S
Si4176 O4372   1.625   .     S
Si4177 O4333   1.624   .     S
Si4177 O4334   1.620   .     S
Si4177 O4368   1.623   .     S
Si4177 O4369   1.626   .     S
Si4178 O4334   1.628   .     S
Si4178 O4335   1.623   .     S
Si4178 O4344   1.628   .     S
Si4179 O4335   1.622   .     S
Si4179 O4336   1.622   .     S
Si4179 O4348   1.623   .     S
Si4179 O4349   1.628   .     S
Si4180 O4286   1.629   .     S
Si4180 O4337   1.623   .     S
Si4180 O4347   1.626   .     S
Si4180 O4375   1.622   .     S
Si4181 O4337   1.621   .     S
Si4181 O4338   1.618   .     S
Si4181 O4342   1.625   .     S
Si4181 O4343   1.623   .     S
Si4182 O4338   1.622   .     S
Si4182 O4339   1.630   .     S
Si4182 O4370   1.621   .     S
Si4182 O4377   1.624   .     S
Si4183 O4339   1.633   .     S
Si4183 O4340   1.623   .     S
Si4183 O4367   1.623   .     S
Si4183 O4378   1.623   .     S
Si4184 O4340   1.626   .     S
Si4184 O4341   1.629   .     S
Si4184 O4344   1.625   .     S
Si4185 O4341   1.628   .     S
Si4185 O4342   1.630   .     S
Si4185 O4350   1.626   .     S
Si4185 O4376   1.623   .     S
Si4186 O4263   1.623   .     S
Si4186 O4353   1.625   .     S
Si4186 O4367   1.628   .     S
Si4186 O4368   1.625   .     S
Si4187 O4353   1.623   .     S
Si4187 O4354   1.624   .     S
Si4187 O4358   1.622   .     S
Si4187 O4365   1.623   .     S
Si4188 O4349   1.626   .     S
Si4188 O4350   1.626   .     S
Si4188 O4355   1.628   .     S
Si4189 O4346   1.623   .     S
Si4189 O4347   1.625   .     S
Si4189 O4355   1.623   .     S
Si4190 O4356   1.627   .     S
Si4190 O4357   1.622   .     S
Si4190 O4366   1.626   .     S
Si4190 O4373   1.623   .     S
Si4191 O4357   1.621   .     S
Si4191 O4358   1.622   .     S
Si4191 O4370   1.625   .     S
Si4191 O4371   1.625   .     S
Si4192 O4264   1.628   .     S
Si4192 O4359   1.622   .     S
Si4192 O4369   1.632   .     S
Si4192 O4379   1.620   .     S
Si4193 O4359   1.617   .     S
Si4193 O4360   1.619   .     S
Si4193 O4364   1.627   .     S
Si4193 O4365   1.623   .     S
Si4194 O4348   1.622   .     S
Si4194 O4361   1.632   .     S
Si4194 O4381   1.623   .     S
Si4195 O4345   1.622   .     S
Si4195 O4361   1.631   .     S
Si4195 O4382   1.625   .     S
Si4196 O4362   1.627   .     S
Si4196 O4363   1.624   .     S
Si4196 O4366   1.625   .     S
Si4196 O4374   1.625   .     S
Si4197 O4363   1.627   .     S
Si4197 O4364   1.629   .     S
Si4197 O4372   1.626   .     S
Si4197 O4380   1.621   .     S
Al4198 O4287   1.892   .     S
Al4198 O4288   1.714   .     S
Al4198 O4292   1.703   .     S
Al4198 O4299   1.715   .     S
O4219  Si4693  1.620   .     S
O4220  Si4699  1.625   .     S
O4222  Si601   1.623   1_556 S
O4224  Si602   1.621   1_556 S
O4228  Si607   1.624   1_556 S
O4230  Si608   1.621   1_556 S
O4351  Si4764  1.623   .     S
O4352  Si4770  1.626   .     S
O4354  Si672   1.623   1_556 S
O4356  Si673   1.622   1_556 S
O4360  Si678   1.621   1_556 S
O4362  Si679   1.625   1_556 S
O4379  Si4409  1.622   1_545 S
O4380  Si4414  1.622   1_545 S
O4381  Si4411  1.622   1_545 S
O4382  Si4412  1.625   1_545 S
O4383  Si4444  1.626   1_545 S
O4384  Si4449  1.626   1_545 S
O4385  Si4446  1.630   1_545 S
O4386  Si4447  1.627   1_545 S
Si4391 O4487   1.621   .     S
Si4391 O4501   1.626   .     S
Si4391 O4502   1.629   .     S
Si4391 O4617   1.621   .     S
Si4392 O4487   1.621   .     S
Si4392 O4488   1.623   .     S
Si4392 O4492   1.617   .     S
Si4392 O4499   1.626   .     S
Si4393 O4488   1.622   .     S
Si4393 O4489   1.623   .     S
Si4393 O4527   1.627   .     S
Si4393 O4528   1.625   .     S
Si4394 O4489   1.622   .     S
Si4394 O4490   1.617   .     S
Si4394 O4524   1.626   .     S
Si4394 O4525   1.623   .     S
Si4395 O4490   1.626   .     S
Si4395 O4491   1.623   .     S
Si4395 O4500   1.625   .     S
Si4396 O4491   1.620   .     S
Si4396 O4492   1.622   .     S
Si4396 O4504   1.622   .     S
Si4396 O4505   1.627   .     S
Si4397 O4493   1.620   .     S
Si4397 O4503   1.630   .     S
Si4397 O4618   1.629   .     S
Si4397 O4663   1.621   .     S
Si4398 O4493   1.619   .     S
Si4398 O4494   1.624   .     S
Si4398 O4498   1.623   .     S
Si4398 O4499   1.622   .     S
Si4399 O4494   1.626   .     S
Si4399 O4495   1.629   .     S
Si4399 O4526   1.621   .     S
Si4399 O4665   1.624   .     S
Si4400 O4495   1.635   .     S
Si4400 O4496   1.618   .     S
Si4400 O4523   1.619   .     S
Si4400 O4666   1.625   .     S
Si4401 O4496   1.624   .     S
Si4401 O4497   1.628   .     S
Si4401 O4500   1.620   .     S
Si4402 O4497   1.626   .     S
Si4402 O4498   1.628   .     S
Si4402 O4506   1.629   .     S
Si4402 O4664   1.623   .     S
Si4403 O4509   1.623   .     S
Si4403 O4523   1.625   .     S
Si4403 O4524   1.629   .     S
Si4403 O4595   1.614   .     S
Si4404 O4509   1.618   .     S
Si4404 O4510   1.628   .     S
Si4404 O4514   1.622   .     S
Si4404 O4521   1.621   .     S
Si4405 O4505   1.624   .     S
Si4405 O4506   1.629   .     S
Si4405 O4511   1.629   .     S
Si4406 O4502   1.622   .     S
Si4406 O4503   1.626   .     S
Si4406 O4511   1.620   .     S
Si4407 O4512   1.624   .     S
Si4407 O4513   1.618   .     S
Si4407 O4522   1.618   .     S
Si4407 O4529   1.627   .     S
Si4408 O4513   1.625   .     S
Si4408 O4514   1.620   .     S
Si4408 O4526   1.624   .     S
Si4408 O4527   1.624   .     S
Si4409 O4515   1.622   .     S
Si4409 O4525   1.627   .     S
Si4409 O4596   1.629   .     S
Si4409 O4379   1.622   1_565 S
Si4410 O4515   1.617   .     S
Si4410 O4516   1.622   .     S
Si4410 O4520   1.626   .     S
Si4410 O4521   1.622   .     S
Si4411 O4504   1.621   .     S
Si4411 O4517   1.634   .     S
Si4411 O4381   1.622   1_565 S
Si4412 O4501   1.624   .     S
Si4412 O4517   1.632   .     S
Si4412 O4382   1.625   1_565 S
Si4413 O4518   1.621   .     S
Si4413 O4519   1.626   .     S
Si4413 O4522   1.627   .     S
Si4413 O4530   1.624   .     S
Si4414 O4519   1.628   .     S
Si4414 O4520   1.626   .     S
Si4414 O4528   1.626   .     S
Si4414 O4380   1.622   1_565 S
Si4415 O4531   1.619   .     S
Si4415 O4545   1.630   .     S
Si4415 O4546   1.627   .     S
Si4415 O4661   1.621   .     S
Si4416 O4531   1.622   .     S
Si4416 O4532   1.628   .     S
Si4416 O4536   1.620   .     S
Si4416 O4543   1.623   .     S
Si4417 O4532   1.625   .     S
Si4417 O4533   1.625   .     S
Si4417 O4571   1.625   .     S
Si4417 O4572   1.630   .     S
Si4418 O4533   1.621   .     S
Si4418 O4534   1.619   .     S
Si4418 O4568   1.623   .     S
Si4418 O4569   1.625   .     S
Si4419 O4534   1.627   .     S
Si4419 O4535   1.623   .     S
Si4419 O4544   1.625   .     S
Si4419 O5137   1.626   .     S
Si4420 O4535   1.623   .     S
Si4420 O4536   1.622   .     S
Si4420 O4548   1.624   .     S
Si4420 O4549   1.627   .     S
Si4421 O4537   1.622   .     S
Si4421 O4547   1.626   .     S
Si4421 O4662   1.631   .     S
Si4421 O4671   1.625   .     S
Si4422 O4537   1.621   .     S
Si4422 O4538   1.622   .     S
Si4422 O4542   1.626   .     S
Si4422 O4543   1.626   .     S
Si4423 O4538   1.628   .     S
Si4423 O4539   1.634   .     S
Si4423 O4570   1.624   .     S
Si4423 O4673   1.623   .     S
Si4424 O4539   1.632   .     S
Si4424 O4540   1.621   .     S
Si4424 O4567   1.624   .     S
Si4424 O4674   1.623   .     S
Si4425 O4540   1.622   .     S
Si4425 O4541   1.628   .     S
Si4425 O4544   1.624   .     S
Si4425 O5138   1.626   .     S
Si4426 O4541   1.630   .     S
Si4426 O4542   1.629   .     S
Si4426 O4550   1.626   .     S
Si4426 O4672   1.620   .     S
Si4427 O4553   1.621   .     S
Si4427 O4567   1.624   .     S
Si4427 O4568   1.626   .     S
Si4427 O4639   1.623   .     S
Si4428 O4553   1.620   .     S
Si4428 O4554   1.623   .     S
Si4428 O4558   1.621   .     S
Si4428 O4565   1.624   .     S
Si4429 O4549   1.627   .     S
Si4429 O4550   1.623   .     S
Si4429 O4555   1.626   .     S
Si4429 O1038   1.622   1_556 S
Si4430 O4546   1.628   .     S
Si4430 O4547   1.621   .     S
Si4430 O4555   1.621   .     S
Si4430 O1040   1.619   1_556 S
Si4431 O4556   1.626   .     S
Si4431 O4557   1.621   .     S
Si4431 O4566   1.626   .     S
Si4431 O4573   1.625   .     S
Si4432 O4557   1.623   .     S
Si4432 O4558   1.624   .     S
Si4432 O4570   1.623   .     S
Si4432 O4571   1.627   .     S
Si4433 O4559   1.623   .     S
Si4433 O4569   1.629   .     S
Si4433 O4640   1.631   .     S
Si4433 O4675   1.619   .     S
Si4434 O4559   1.619   .     S
Si4434 O4560   1.623   .     S
Si4434 O4564   1.628   .     S
Si4434 O4565   1.621   .     S
Si4435 O4548   1.621   .     S
Si4435 O4561   1.636   .     S
Si4435 O4677   1.621   .     S
Si4435 O1044   1.624   1_556 S
Si4436 O4545   1.622   .     S
Si4436 O4561   1.628   .     S
Si4436 O4678   1.632   .     S
Si4436 O1046   1.620   1_556 S
Si4437 O4562   1.626   .     S
Si4437 O4563   1.626   .     S
Si4437 O4566   1.619   .     S
Si4437 O4574   1.627   .     S
Si4438 O4563   1.629   .     S
Si4438 O4564   1.628   .     S
Si4438 O4572   1.629   .     S
Si4438 O4676   1.622   .     S
Si4439 O4529   1.606   .     S
Si4439 O4575   1.695   .     S
Si4439 O4589   1.616   .     S
Si4439 O4590   1.598   .     S
Si4440 O4576   1.593   .     S
Si4440 O4577   1.640   .     S
Si4440 O4615   1.636   .     S
Si4440 O4616   1.638   .     S
Si4441 O4577   1.622   .     S
Si4441 O4578   1.618   .     S
Si4441 O4612   1.629   .     S
Si4441 O4613   1.629   .     S
Si4442 O4578   1.627   .     S
Si4442 O4579   1.616   .     S
Si4442 O4588   1.627   .     S
Si4442 O5181   1.623   .     S
Si4443 O4579   1.631   .     S
Si4443 O4580   1.592   .     S
Si4443 O4592   1.635   .     S
Si4443 O4593   1.636   .     S
Si4444 O4530   1.634   .     S
Si4444 O4581   1.619   .     S
Si4444 O4591   1.634   .     S
Si4444 O4383   1.626   1_565 S
Si4445 O4581   1.634   .     S
Si4445 O4582   1.627   .     S
Si4445 O4586   1.638   .     S
Si4445 O4587   1.601   .     S
Si4446 O4582   1.617   .     S
Si4446 O4583   1.634   .     S
Si4446 O4614   1.622   .     S
Si4446 O4385   1.630   1_565 S
Si4447 O4583   1.630   .     S
Si4447 O4584   1.621   .     S
Si4447 O4611   1.621   .     S
Si4447 O4386   1.627   1_565 S
Si4448 O4584   1.625   .     S
Si4448 O4585   1.623   .     S
Si4448 O4588   1.621   .     S
Si4448 O5182   1.630   .     S
Si4449 O4585   1.628   .     S
Si4449 O4586   1.622   .     S
Si4449 O4594   1.625   .     S
Si4449 O4384   1.626   1_565 S
Si4450 O4507   1.622   .     S
Si4450 O4597   1.618   .     S
Si4450 O4611   1.623   .     S
Si4450 O4612   1.629   .     S
Si4451 O4597   1.618   .     S
Si4451 O4598   1.626   .     S
Si4451 O4602   1.618   .     S
Si4451 O4609   1.628   .     S
Si4452 O4593   1.619   .     S
Si4452 O4594   1.623   .     S
Si4452 O4599   1.632   .     S
Si4452 O1082   1.627   1_556 S
Si4453 O4590   1.636   .     S
Si4453 O4591   1.622   .     S
Si4453 O4599   1.613   .     S
Si4453 O1084   1.619   1_556 S
Si4454 O4600   1.627   .     S
Si4454 O4601   1.619   .     S
Si4454 O4610   1.630   .     S
Si4454 O4617   1.625   .     S
Si4455 O4601   1.628   .     S
Si4455 O4602   1.621   .     S
Si4455 O4614   1.623   .     S
Si4455 O4615   1.625   .     S
Si4456 O4508   1.631   .     S
Si4456 O4603   1.618   .     S
Si4456 O4613   1.626   .     S
Si4456 O4675   1.622   .     S
Si4457 O4603   1.616   .     S
Si4457 O4604   1.617   .     S
Si4457 O4608   1.630   .     S
Si4457 O4609   1.621   .     S
Si4458 O4592   1.611   .     S
Si4458 O4605   1.643   .     S
Si4458 O4677   1.624   .     S
Si4458 O1088   1.620   1_556 S
Si4459 O4589   1.632   .     S
Si4459 O4605   1.625   .     S
Si4459 O4678   1.626   .     S
Si4459 O1090   1.618   1_556 S
Si4460 O4606   1.628   .     S
Si4460 O4607   1.625   .     S
Si4460 O4610   1.623   .     S
Si4460 O4618   1.627   .     S
Si4461 O4607   1.633   .     S
Si4461 O4608   1.627   .     S
Si4461 O4616   1.617   .     S
Si4461 O4676   1.624   .     S
Si4462 O4573   1.622   .     S
Si4462 O4619   1.626   .     S
Si4462 O4633   1.625   .     S
Si4462 O4634   1.629   .     S
Si4463 O4619   1.624   .     S
Si4463 O4620   1.625   .     S
Si4463 O4624   1.619   .     S
Si4463 O4631   1.625   .     S
Si4464 O4620   1.623   .     S
Si4464 O4621   1.626   .     S
Si4464 O4659   1.626   .     S
Si4464 O4660   1.625   .     S
Si4465 O4621   1.624   .     S
Si4465 O4622   1.620   .     S
Si4465 O4656   1.623   .     S
Si4465 O4657   1.626   .     S
Si4466 O4622   1.628   .     S
Si4466 O4623   1.623   .     S
Si4466 O4632   1.628   .     S
Si4467 O4623   1.622   .     S
Si4467 O4624   1.622   .     S
Si4467 O4636   1.623   .     S
Si4467 O4637   1.628   .     S
Si4468 O4574   1.629   .     S
Si4468 O4625   1.623   .     S
Si4468 O4635   1.626   .     S
Si4468 O4663   1.622   .     S
Si4469 O4625   1.621   .     S
Si4469 O4626   1.618   .     S
Si4469 O4630   1.625   .     S
Si4469 O4631   1.623   .     S
Si4470 O4626   1.622   .     S
Si4470 O4627   1.630   .     S
Si4470 O4658   1.621   .     S
Si4470 O4665   1.624   .     S
Si4471 O4627   1.633   .     S
Si4471 O4628   1.623   .     S
Si4471 O4655   1.623   .     S
Si4471 O4666   1.623   .     S
Si4472 O4628   1.626   .     S
Si4472 O4629   1.629   .     S
Si4472 O4632   1.625   .     S
Si4473 O4629   1.628   .     S
Si4473 O4630   1.630   .     S
Si4473 O4638   1.626   .     S
Si4473 O4664   1.623   .     S
Si4474 O4551   1.623   .     S
Si4474 O4641   1.625   .     S
Si4474 O4655   1.628   .     S
Si4474 O4656   1.625   .     S
Si4475 O4641   1.623   .     S
Si4475 O4642   1.624   .     S
Si4475 O4646   1.622   .     S
Si4475 O4653   1.623   .     S
Si4476 O4637   1.626   .     S
Si4476 O4638   1.626   .     S
Si4476 O4643   1.628   .     S
Si4477 O4634   1.623   .     S
Si4477 O4635   1.625   .     S
Si4477 O4643   1.623   .     S
Si4478 O4644   1.627   .     S
Si4478 O4645   1.622   .     S
Si4478 O4654   1.626   .     S
Si4478 O4661   1.623   .     S
Si4479 O4645   1.621   .     S
Si4479 O4646   1.622   .     S
Si4479 O4658   1.625   .     S
Si4479 O4659   1.625   .     S
Si4480 O4552   1.628   .     S
Si4480 O4647   1.622   .     S
Si4480 O4657   1.632   .     S
Si4480 O4667   1.620   .     S
Si4481 O4647   1.617   .     S
Si4481 O4648   1.619   .     S
Si4481 O4652   1.627   .     S
Si4481 O4653   1.623   .     S
Si4482 O4636   1.622   .     S
Si4482 O4649   1.632   .     S
Si4482 O4669   1.623   .     S
Si4483 O4633   1.622   .     S
Si4483 O4649   1.631   .     S
Si4483 O4670   1.625   .     S
Si4484 O4650   1.627   .     S
Si4484 O4651   1.624   .     S
Si4484 O4654   1.625   .     S
Si4484 O4662   1.625   .     S
Si4485 O4651   1.627   .     S
Si4485 O4652   1.629   .     S
Si4485 O4660   1.626   .     S
Si4485 O4668   1.621   .     S
Al4486 O4575   1.892   .     S
Al4486 O4576   1.714   .     S
Al4486 O4580   1.703   .     S
Al4486 O4587   1.715   .     S
O4507  Si4981  1.620   .     S
O4508  Si4987  1.625   .     S
O4510  Si889   1.623   1_556 S
O4512  Si890   1.621   1_556 S
O4516  Si895   1.624   1_556 S
O4518  Si896   1.621   1_556 S
O4575  H4679   1.007   .     S
O4639  Si5052  1.623   .     S
O4640  Si5058  1.626   .     S
O4642  Si960   1.623   1_556 S
O4644  Si961   1.622   1_556 S
O4648  Si966   1.621   1_556 S
O4650  Si967   1.625   1_556 S
H4680  C4686   1.090   .     S
H4681  C4687   1.087   .     S
H4682  C4684   1.090   .     S
H4683  C4685   1.086   .     S
C4684  C4685   1.370   .     D
C4684  C4686   1.431   .     S
C4685  S4688   1.726   .     S
C4686  C4687   1.370   .     D
C4687  S4688   1.729   .     S
Si4689 O4785   1.621   .     S
Si4689 O4799   1.626   .     S
Si4689 O4800   1.629   .     S
Si4689 O4915   1.621   .     S
Si4690 O4785   1.621   .     S
Si4690 O4786   1.623   .     S
Si4690 O4790   1.617   .     S
Si4690 O4797   1.626   .     S
Si4691 O4786   1.622   .     S
Si4691 O4787   1.623   .     S
Si4691 O4825   1.627   .     S
Si4691 O4826   1.625   .     S
Si4692 O4787   1.622   .     S
Si4692 O4788   1.617   .     S
Si4692 O4822   1.626   .     S
Si4692 O4823   1.623   .     S
Si4693 O4788   1.626   .     S
Si4693 O4789   1.623   .     S
Si4693 O4798   1.625   .     S
Si4694 O4789   1.620   .     S
Si4694 O4790   1.622   .     S
Si4694 O4802   1.622   .     S
Si4694 O4803   1.627   .     S
Si4695 O4791   1.620   .     S
Si4695 O4801   1.630   .     S
Si4695 O4916   1.629   .     S
Si4695 O4961   1.621   .     S
Si4696 O4791   1.619   .     S
Si4696 O4792   1.624   .     S
Si4696 O4796   1.623   .     S
Si4696 O4797   1.622   .     S
Si4697 O4792   1.626   .     S
Si4697 O4793   1.629   .     S
Si4697 O4824   1.621   .     S
Si4697 O4963   1.624   .     S
Si4698 O4793   1.635   .     S
Si4698 O4794   1.618   .     S
Si4698 O4821   1.619   .     S
Si4698 O4964   1.625   .     S
Si4699 O4794   1.624   .     S
Si4699 O4795   1.628   .     S
Si4699 O4798   1.620   .     S
Si4700 O4795   1.626   .     S
Si4700 O4796   1.628   .     S
Si4700 O4804   1.629   .     S
Si4700 O4962   1.623   .     S
Si4701 O4807   1.623   .     S
Si4701 O4821   1.625   .     S
Si4701 O4822   1.629   .     S
Si4701 O4893   1.614   .     S
Si4702 O4807   1.618   .     S
Si4702 O4808   1.628   .     S
Si4702 O4812   1.622   .     S
Si4702 O4819   1.621   .     S
Si4703 O4803   1.624   .     S
Si4703 O4804   1.629   .     S
Si4703 O4809   1.629   .     S
Si4704 O4800   1.622   .     S
Si4704 O4801   1.626   .     S
Si4704 O4809   1.620   .     S
Si4705 O4810   1.624   .     S
Si4705 O4811   1.618   .     S
Si4705 O4820   1.618   .     S
Si4705 O4827   1.627   .     S
Si4706 O4811   1.625   .     S
Si4706 O4812   1.620   .     S
Si4706 O4824   1.624   .     S
Si4706 O4825   1.624   .     S
Si4707 O4813   1.622   .     S
Si4707 O4823   1.627   .     S
Si4707 O4894   1.629   .     S
Si4707 O5253   1.622   .     S
Si4708 O4813   1.617   .     S
Si4708 O4814   1.622   .     S
Si4708 O4818   1.626   .     S
Si4708 O4819   1.622   .     S
Si4709 O4802   1.621   .     S
Si4709 O4815   1.634   .     S
Si4709 O5255   1.622   .     S
Si4710 O4799   1.624   .     S
Si4710 O4815   1.632   .     S
Si4710 O5256   1.625   .     S
Si4711 O4816   1.621   .     S
Si4711 O4817   1.626   .     S
Si4711 O4820   1.627   .     S
Si4711 O4828   1.624   .     S
Si4712 O4817   1.628   .     S
Si4712 O4818   1.626   .     S
Si4712 O4826   1.626   .     S
Si4712 O5254   1.622   .     S
Si4713 O4829   1.619   .     S
Si4713 O4843   1.630   .     S
Si4713 O4844   1.627   .     S
Si4713 O4959   1.621   .     S
Si4714 O4829   1.622   .     S
Si4714 O4830   1.628   .     S
Si4714 O4834   1.620   .     S
Si4714 O4841   1.623   .     S
Si4715 O4830   1.625   .     S
Si4715 O4831   1.625   .     S
Si4715 O4869   1.625   .     S
Si4715 O4870   1.630   .     S
Si4716 O4831   1.621   .     S
Si4716 O4832   1.619   .     S
Si4716 O4866   1.623   .     S
Si4716 O4867   1.625   .     S
Si4717 O4832   1.627   .     S
Si4717 O4833   1.623   .     S
Si4717 O4842   1.625   .     S
Si4717 O3677   1.626   1_655 S
Si4718 O4833   1.623   .     S
Si4718 O4834   1.622   .     S
Si4718 O4846   1.624   .     S
Si4718 O4847   1.627   .     S
Si4719 O4835   1.622   .     S
Si4719 O4845   1.626   .     S
Si4719 O4960   1.631   .     S
Si4719 O4969   1.625   .     S
Si4720 O4835   1.621   .     S
Si4720 O4836   1.622   .     S
Si4720 O4840   1.626   .     S
Si4720 O4841   1.626   .     S
Si4721 O4836   1.628   .     S
Si4721 O4837   1.634   .     S
Si4721 O4868   1.624   .     S
Si4721 O4971   1.623   .     S
Si4722 O4837   1.632   .     S
Si4722 O4838   1.621   .     S
Si4722 O4865   1.624   .     S
Si4722 O4972   1.623   .     S
Si4723 O4838   1.622   .     S
Si4723 O4839   1.628   .     S
Si4723 O4842   1.624   .     S
Si4723 O3678   1.626   1_655 S
Si4724 O4839   1.630   .     S
Si4724 O4840   1.629   .     S
Si4724 O4848   1.626   .     S
Si4724 O4970   1.620   .     S
Si4725 O4851   1.621   .     S
Si4725 O4865   1.624   .     S
Si4725 O4866   1.626   .     S
Si4725 O4937   1.623   .     S
Si4726 O4851   1.620   .     S
Si4726 O4852   1.623   .     S
Si4726 O4856   1.621   .     S
Si4726 O4863   1.624   .     S
Si4727 O4847   1.627   .     S
Si4727 O4848   1.623   .     S
Si4727 O4853   1.626   .     S
Si4727 O1336   1.622   1_556 S
Si4728 O4844   1.628   .     S
Si4728 O4845   1.621   .     S
Si4728 O4853   1.621   .     S
Si4728 O1338   1.619   1_556 S
Si4729 O4854   1.626   .     S
Si4729 O4855   1.621   .     S
Si4729 O4864   1.626   .     S
Si4729 O4871   1.625   .     S
Si4730 O4855   1.623   .     S
Si4730 O4856   1.624   .     S
Si4730 O4868   1.623   .     S
Si4730 O4869   1.627   .     S
Si4731 O4857   1.623   .     S
Si4731 O4867   1.629   .     S
Si4731 O4938   1.631   .     S
Si4731 O4973   1.619   .     S
Si4732 O4857   1.619   .     S
Si4732 O4858   1.623   .     S
Si4732 O4862   1.628   .     S
Si4732 O4863   1.621   .     S
Si4733 O4846   1.621   .     S
Si4733 O4859   1.636   .     S
Si4733 O4975   1.621   .     S
Si4733 O1342   1.624   1_556 S
Si4734 O4843   1.622   .     S
Si4734 O4859   1.628   .     S
Si4734 O4976   1.632   .     S
Si4734 O1344   1.620   1_556 S
Si4735 O4860   1.626   .     S
Si4735 O4861   1.626   .     S
Si4735 O4864   1.619   .     S
Si4735 O4872   1.627   .     S
Si4736 O4861   1.629   .     S
Si4736 O4862   1.628   .     S
Si4736 O4870   1.629   .     S
Si4736 O4974   1.622   .     S
Si4737 O4827   1.606   .     S
Si4737 O4873   1.695   .     S
Si4737 O4887   1.616   .     S
Si4737 O4888   1.598   .     S
Si4738 O4874   1.593   .     S
Si4738 O4875   1.640   .     S
Si4738 O4913   1.636   .     S
Si4738 O4914   1.638   .     S
Si4739 O4875   1.622   .     S
Si4739 O4876   1.618   .     S
Si4739 O4910   1.629   .     S
Si4739 O4911   1.629   .     S
Si4740 O4876   1.627   .     S
Si4740 O4877   1.616   .     S
Si4740 O4886   1.627   .     S
Si4740 O3721   1.623   1_655 S
Si4741 O4877   1.631   .     S
Si4741 O4878   1.592   .     S
Si4741 O4890   1.635   .     S
Si4741 O4891   1.636   .     S
Si4742 O4828   1.634   .     S
Si4742 O4879   1.619   .     S
Si4742 O4889   1.634   .     S
Si4742 O5257   1.626   .     S
Si4743 O4879   1.634   .     S
Si4743 O4880   1.627   .     S
Si4743 O4884   1.638   .     S
Si4743 O4885   1.601   .     S
Si4744 O4880   1.617   .     S
Si4744 O4881   1.634   .     S
Si4744 O4912   1.622   .     S
Si4744 O5259   1.630   .     S
Si4745 O4881   1.630   .     S
Si4745 O4882   1.621   .     S
Si4745 O4909   1.621   .     S
Si4745 O5260   1.627   .     S
Si4746 O4882   1.625   .     S
Si4746 O4883   1.623   .     S
Si4746 O4886   1.621   .     S
Si4746 O3722   1.630   1_655 S
Si4747 O4883   1.628   .     S
Si4747 O4884   1.622   .     S
Si4747 O4892   1.625   .     S
Si4747 O5258   1.626   .     S
Si4748 O4805   1.622   .     S
Si4748 O4895   1.618   .     S
Si4748 O4909   1.623   .     S
Si4748 O4910   1.629   .     S
Si4749 O4895   1.618   .     S
Si4749 O4896   1.626   .     S
Si4749 O4900   1.618   .     S
Si4749 O4907   1.628   .     S
Si4750 O4891   1.619   .     S
Si4750 O4892   1.623   .     S
Si4750 O4897   1.632   .     S
Si4750 O1380   1.627   1_556 S
Si4751 O4888   1.636   .     S
Si4751 O4889   1.622   .     S
Si4751 O4897   1.613   .     S
Si4751 O1382   1.619   1_556 S
Si4752 O4898   1.627   .     S
Si4752 O4899   1.619   .     S
Si4752 O4908   1.630   .     S
Si4752 O4915   1.625   .     S
Si4753 O4899   1.628   .     S
Si4753 O4900   1.621   .     S
Si4753 O4912   1.623   .     S
Si4753 O4913   1.625   .     S
Si4754 O4806   1.631   .     S
Si4754 O4901   1.618   .     S
Si4754 O4911   1.626   .     S
Si4754 O4973   1.622   .     S
Si4755 O4901   1.616   .     S
Si4755 O4902   1.617   .     S
Si4755 O4906   1.630   .     S
Si4755 O4907   1.621   .     S
Si4756 O4890   1.611   .     S
Si4756 O4903   1.643   .     S
Si4756 O4975   1.624   .     S
Si4756 O1386   1.620   1_556 S
Si4757 O4887   1.632   .     S
Si4757 O4903   1.625   .     S
Si4757 O4976   1.626   .     S
Si4757 O1388   1.618   1_556 S
Si4758 O4904   1.628   .     S
Si4758 O4905   1.625   .     S
Si4758 O4908   1.623   .     S
Si4758 O4916   1.627   .     S
Si4759 O4905   1.633   .     S
Si4759 O4906   1.627   .     S
Si4759 O4914   1.617   .     S
Si4759 O4974   1.624   .     S
Si4760 O4871   1.622   .     S
Si4760 O4917   1.626   .     S
Si4760 O4931   1.625   .     S
Si4760 O4932   1.629   .     S
Si4761 O4917   1.624   .     S
Si4761 O4918   1.625   .     S
Si4761 O4922   1.619   .     S
Si4761 O4929   1.625   .     S
Si4762 O4918   1.623   .     S
Si4762 O4919   1.626   .     S
Si4762 O4957   1.626   .     S
Si4762 O4958   1.625   .     S
Si4763 O4919   1.624   .     S
Si4763 O4920   1.620   .     S
Si4763 O4954   1.623   .     S
Si4763 O4955   1.626   .     S
Si4764 O4920   1.628   .     S
Si4764 O4921   1.623   .     S
Si4764 O4930   1.628   .     S
Si4765 O4921   1.622   .     S
Si4765 O4922   1.622   .     S
Si4765 O4934   1.623   .     S
Si4765 O4935   1.628   .     S
Si4766 O4872   1.629   .     S
Si4766 O4923   1.623   .     S
Si4766 O4933   1.626   .     S
Si4766 O4961   1.622   .     S
Si4767 O4923   1.621   .     S
Si4767 O4924   1.618   .     S
Si4767 O4928   1.625   .     S
Si4767 O4929   1.623   .     S
Si4768 O4924   1.622   .     S
Si4768 O4925   1.630   .     S
Si4768 O4956   1.621   .     S
Si4768 O4963   1.624   .     S
Si4769 O4925   1.633   .     S
Si4769 O4926   1.623   .     S
Si4769 O4953   1.623   .     S
Si4769 O4964   1.623   .     S
Si4770 O4926   1.626   .     S
Si4770 O4927   1.629   .     S
Si4770 O4930   1.625   .     S
Si4771 O4927   1.628   .     S
Si4771 O4928   1.630   .     S
Si4771 O4936   1.626   .     S
Si4771 O4962   1.623   .     S
Si4772 O4849   1.623   .     S
Si4772 O4939   1.625   .     S
Si4772 O4953   1.628   .     S
Si4772 O4954   1.625   .     S
Si4773 O4939   1.623   .     S
Si4773 O4940   1.624   .     S
Si4773 O4944   1.622   .     S
Si4773 O4951   1.623   .     S
Si4774 O4935   1.626   .     S
Si4774 O4936   1.626   .     S
Si4774 O4941   1.628   .     S
Si4775 O4932   1.623   .     S
Si4775 O4933   1.625   .     S
Si4775 O4941   1.623   .     S
Si4776 O4942   1.627   .     S
Si4776 O4943   1.622   .     S
Si4776 O4952   1.626   .     S
Si4776 O4959   1.623   .     S
Si4777 O4943   1.621   .     S
Si4777 O4944   1.622   .     S
Si4777 O4956   1.625   .     S
Si4777 O4957   1.625   .     S
Si4778 O4850   1.628   .     S
Si4778 O4945   1.622   .     S
Si4778 O4955   1.632   .     S
Si4778 O4965   1.620   .     S
Si4779 O4945   1.617   .     S
Si4779 O4946   1.619   .     S
Si4779 O4950   1.627   .     S
Si4779 O4951   1.623   .     S
Si4780 O4934   1.622   .     S
Si4780 O4947   1.632   .     S
Si4780 O4967   1.623   .     S
Si4781 O4931   1.622   .     S
Si4781 O4947   1.631   .     S
Si4781 O4968   1.625   .     S
Si4782 O4948   1.627   .     S
Si4782 O4949   1.624   .     S
Si4782 O4952   1.625   .     S
Si4782 O4960   1.625   .     S
Si4783 O4949   1.627   .     S
Si4783 O4950   1.629   .     S
Si4783 O4958   1.626   .     S
Si4783 O4966   1.621   .     S
Al4784 O4873   1.892   .     S
Al4784 O4874   1.714   .     S
Al4784 O4878   1.703   .     S
Al4784 O4885   1.715   .     S
O4805  Si3521  1.620   1_655 S
O4806  Si3527  1.625   1_655 S
O4808  Si1187  1.623   1_556 S
O4810  Si1188  1.621   1_556 S
O4814  Si1193  1.624   1_556 S
O4816  Si1194  1.621   1_556 S
O4937  Si3592  1.623   1_655 S
O4938  Si3598  1.626   1_655 S
O4940  Si1258  1.623   1_556 S
O4942  Si1259  1.622   1_556 S
O4946  Si1264  1.621   1_556 S
O4948  Si1265  1.625   1_556 S
O4965  Si4995  1.622   1_545 S
O4966  Si5000  1.622   1_545 S
O4967  Si4997  1.622   1_545 S
O4968  Si4998  1.625   1_545 S
O4969  Si5030  1.626   1_545 S
O4970  Si5035  1.626   1_545 S
O4971  Si5032  1.630   1_545 S
O4972  Si5033  1.627   1_545 S
Si4977 O5073   1.621   .     S
Si4977 O5087   1.626   .     S
Si4977 O5088   1.629   .     S
Si4977 O5203   1.621   .     S
Si4978 O5073   1.621   .     S
Si4978 O5074   1.623   .     S
Si4978 O5078   1.617   .     S
Si4978 O5085   1.626   .     S
Si4979 O5074   1.622   .     S
Si4979 O5075   1.623   .     S
Si4979 O5113   1.627   .     S
Si4979 O5114   1.625   .     S
Si4980 O5075   1.622   .     S
Si4980 O5076   1.617   .     S
Si4980 O5110   1.626   .     S
Si4980 O5111   1.623   .     S
Si4981 O5076   1.626   .     S
Si4981 O5077   1.623   .     S
Si4981 O5086   1.625   .     S
Si4982 O5077   1.620   .     S
Si4982 O5078   1.622   .     S
Si4982 O5090   1.622   .     S
Si4982 O5091   1.627   .     S
Si4983 O5079   1.620   .     S
Si4983 O5089   1.630   .     S
Si4983 O5204   1.629   .     S
Si4983 O5249   1.621   .     S
Si4984 O5079   1.619   .     S
Si4984 O5080   1.624   .     S
Si4984 O5084   1.623   .     S
Si4984 O5085   1.622   .     S
Si4985 O5080   1.626   .     S
Si4985 O5081   1.629   .     S
Si4985 O5112   1.621   .     S
Si4985 O5251   1.624   .     S
Si4986 O5081   1.635   .     S
Si4986 O5082   1.618   .     S
Si4986 O5109   1.619   .     S
Si4986 O5252   1.625   .     S
Si4987 O5082   1.624   .     S
Si4987 O5083   1.628   .     S
Si4987 O5086   1.620   .     S
Si4988 O5083   1.626   .     S
Si4988 O5084   1.628   .     S
Si4988 O5092   1.629   .     S
Si4988 O5250   1.623   .     S
Si4989 O5095   1.623   .     S
Si4989 O5109   1.625   .     S
Si4989 O5110   1.629   .     S
Si4989 O5181   1.614   .     S
Si4990 O5095   1.618   .     S
Si4990 O5096   1.628   .     S
Si4990 O5100   1.622   .     S
Si4990 O5107   1.621   .     S
Si4991 O5091   1.624   .     S
Si4991 O5092   1.629   .     S
Si4991 O5097   1.629   .     S
Si4992 O5088   1.622   .     S
Si4992 O5089   1.626   .     S
Si4992 O5097   1.620   .     S
Si4993 O5098   1.624   .     S
Si4993 O5099   1.618   .     S
Si4993 O5108   1.618   .     S
Si4993 O5115   1.627   .     S
Si4994 O5099   1.625   .     S
Si4994 O5100   1.620   .     S
Si4994 O5112   1.624   .     S
Si4994 O5113   1.624   .     S
Si4995 O5101   1.622   .     S
Si4995 O5111   1.627   .     S
Si4995 O5182   1.629   .     S
Si4995 O4965   1.622   1_565 S
Si4996 O5101   1.617   .     S
Si4996 O5102   1.622   .     S
Si4996 O5106   1.626   .     S
Si4996 O5107   1.622   .     S
Si4997 O5090   1.621   .     S
Si4997 O5103   1.634   .     S
Si4997 O4967   1.622   1_565 S
Si4998 O5087   1.624   .     S
Si4998 O5103   1.632   .     S
Si4998 O4968   1.625   1_565 S
Si4999 O5104   1.621   .     S
Si4999 O5105   1.626   .     S
Si4999 O5108   1.627   .     S
Si4999 O5116   1.624   .     S
Si5000 O5105   1.628   .     S
Si5000 O5106   1.626   .     S
Si5000 O5114   1.626   .     S
Si5000 O4966   1.622   1_565 S
Si5001 O5117   1.619   .     S
Si5001 O5131   1.630   .     S
Si5001 O5132   1.627   .     S
Si5001 O5247   1.621   .     S
Si5002 O5117   1.622   .     S
Si5002 O5118   1.628   .     S
Si5002 O5122   1.620   .     S
Si5002 O5129   1.623   .     S
Si5003 O5118   1.625   .     S
Si5003 O5119   1.625   .     S
Si5003 O5157   1.625   .     S
Si5003 O5158   1.630   .     S
Si5004 O5119   1.621   .     S
Si5004 O5120   1.619   .     S
Si5004 O5154   1.623   .     S
Si5004 O5155   1.625   .     S
Si5005 O5120   1.627   .     S
Si5005 O5121   1.623   .     S
Si5005 O5130   1.625   .     S
Si5005 O3965   1.626   1_655 S
Si5006 O5121   1.623   .     S
Si5006 O5122   1.622   .     S
Si5006 O5134   1.624   .     S
Si5006 O5135   1.627   .     S
Si5007 O5123   1.622   .     S
Si5007 O5133   1.626   .     S
Si5007 O5248   1.631   .     S
Si5007 O5257   1.625   .     S
Si5008 O5123   1.621   .     S
Si5008 O5124   1.622   .     S
Si5008 O5128   1.626   .     S
Si5008 O5129   1.626   .     S
Si5009 O5124   1.628   .     S
Si5009 O5125   1.634   .     S
Si5009 O5156   1.624   .     S
Si5009 O5259   1.623   .     S
Si5010 O5125   1.632   .     S
Si5010 O5126   1.621   .     S
Si5010 O5153   1.624   .     S
Si5010 O5260   1.623   .     S
Si5011 O5126   1.622   .     S
Si5011 O5127   1.628   .     S
Si5011 O5130   1.624   .     S
Si5011 O3966   1.626   1_655 S
Si5012 O5127   1.630   .     S
Si5012 O5128   1.629   .     S
Si5012 O5136   1.626   .     S
Si5012 O5258   1.620   .     S
Si5013 O5139   1.621   .     S
Si5013 O5153   1.624   .     S
Si5013 O5154   1.626   .     S
Si5013 O5225   1.623   .     S
Si5014 O5139   1.620   .     S
Si5014 O5140   1.623   .     S
Si5014 O5144   1.621   .     S
Si5014 O5151   1.624   .     S
Si5015 O5135   1.627   .     S
Si5015 O5136   1.623   .     S
Si5015 O5141   1.626   .     S
Si5015 O1624   1.622   1_556 S
Si5016 O5132   1.628   .     S
Si5016 O5133   1.621   .     S
Si5016 O5141   1.621   .     S
Si5016 O1626   1.619   1_556 S
Si5017 O5142   1.626   .     S
Si5017 O5143   1.621   .     S
Si5017 O5152   1.626   .     S
Si5017 O5159   1.625   .     S
Si5018 O5143   1.623   .     S
Si5018 O5144   1.624   .     S
Si5018 O5156   1.623   .     S
Si5018 O5157   1.627   .     S
Si5019 O5145   1.623   .     S
Si5019 O5155   1.629   .     S
Si5019 O5226   1.631   .     S
Si5019 O5261   1.619   .     S
Si5020 O5145   1.619   .     S
Si5020 O5146   1.623   .     S
Si5020 O5150   1.628   .     S
Si5020 O5151   1.621   .     S
Si5021 O5134   1.621   .     S
Si5021 O5147   1.636   .     S
Si5021 O5263   1.621   .     S
Si5021 O1630   1.624   1_556 S
Si5022 O5131   1.622   .     S
Si5022 O5147   1.628   .     S
Si5022 O5264   1.632   .     S
Si5022 O1632   1.620   1_556 S
Si5023 O5148   1.626   .     S
Si5023 O5149   1.626   .     S
Si5023 O5152   1.619   .     S
Si5023 O5160   1.627   .     S
Si5024 O5149   1.629   .     S
Si5024 O5150   1.628   .     S
Si5024 O5158   1.629   .     S
Si5024 O5262   1.622   .     S
Si5025 O5115   1.606   .     S
Si5025 O5161   1.695   .     S
Si5025 O5175   1.616   .     S
Si5025 O5176   1.598   .     S
Si5026 O5162   1.593   .     S
Si5026 O5163   1.640   .     S
Si5026 O5201   1.636   .     S
Si5026 O5202   1.638   .     S
Si5027 O5163   1.622   .     S
Si5027 O5164   1.618   .     S
Si5027 O5198   1.629   .     S
Si5027 O5199   1.629   .     S
Si5028 O5164   1.627   .     S
Si5028 O5165   1.616   .     S
Si5028 O5174   1.627   .     S
Si5028 O4009   1.623   1_655 S
Si5029 O5165   1.631   .     S
Si5029 O5166   1.592   .     S
Si5029 O5178   1.635   .     S
Si5029 O5179   1.636   .     S
Si5030 O5116   1.634   .     S
Si5030 O5167   1.619   .     S
Si5030 O5177   1.634   .     S
Si5030 O4969   1.626   1_565 S
Si5031 O5167   1.634   .     S
Si5031 O5168   1.627   .     S
Si5031 O5172   1.638   .     S
Si5031 O5173   1.601   .     S
Si5032 O5168   1.617   .     S
Si5032 O5169   1.634   .     S
Si5032 O5200   1.622   .     S
Si5032 O4971   1.630   1_565 S
Si5033 O5169   1.630   .     S
Si5033 O5170   1.621   .     S
Si5033 O5197   1.621   .     S
Si5033 O4972   1.627   1_565 S
Si5034 O5170   1.625   .     S
Si5034 O5171   1.623   .     S
Si5034 O5174   1.621   .     S
Si5034 O4010   1.630   1_655 S
Si5035 O5171   1.628   .     S
Si5035 O5172   1.622   .     S
Si5035 O5180   1.625   .     S
Si5035 O4970   1.626   1_565 S
Si5036 O5093   1.622   .     S
Si5036 O5183   1.618   .     S
Si5036 O5197   1.623   .     S
Si5036 O5198   1.629   .     S
Si5037 O5183   1.618   .     S
Si5037 O5184   1.626   .     S
Si5037 O5188   1.618   .     S
Si5037 O5195   1.628   .     S
Si5038 O5179   1.619   .     S
Si5038 O5180   1.623   .     S
Si5038 O5185   1.632   .     S
Si5038 O1668   1.627   1_556 S
Si5039 O5176   1.636   .     S
Si5039 O5177   1.622   .     S
Si5039 O5185   1.613   .     S
Si5039 O1670   1.619   1_556 S
Si5040 O5186   1.627   .     S
Si5040 O5187   1.619   .     S
Si5040 O5196   1.630   .     S
Si5040 O5203   1.625   .     S
Si5041 O5187   1.628   .     S
Si5041 O5188   1.621   .     S
Si5041 O5200   1.623   .     S
Si5041 O5201   1.625   .     S
Si5042 O5094   1.631   .     S
Si5042 O5189   1.618   .     S
Si5042 O5199   1.626   .     S
Si5042 O5261   1.622   .     S
Si5043 O5189   1.616   .     S
Si5043 O5190   1.617   .     S
Si5043 O5194   1.630   .     S
Si5043 O5195   1.621   .     S
Si5044 O5178   1.611   .     S
Si5044 O5191   1.643   .     S
Si5044 O5263   1.624   .     S
Si5044 O1674   1.620   1_556 S
Si5045 O5175   1.632   .     S
Si5045 O5191   1.625   .     S
Si5045 O5264   1.626   .     S
Si5045 O1676   1.618   1_556 S
Si5046 O5192   1.628   .     S
Si5046 O5193   1.625   .     S
Si5046 O5196   1.623   .     S
Si5046 O5204   1.627   .     S
Si5047 O5193   1.633   .     S
Si5047 O5194   1.627   .     S
Si5047 O5202   1.617   .     S
Si5047 O5262   1.624   .     S
Si5048 O5159   1.622   .     S
Si5048 O5205   1.626   .     S
Si5048 O5219   1.625   .     S
Si5048 O5220   1.629   .     S
Si5049 O5205   1.624   .     S
Si5049 O5206   1.625   .     S
Si5049 O5210   1.619   .     S
Si5049 O5217   1.625   .     S
Si5050 O5206   1.623   .     S
Si5050 O5207   1.626   .     S
Si5050 O5245   1.626   .     S
Si5050 O5246   1.625   .     S
Si5051 O5207   1.624   .     S
Si5051 O5208   1.620   .     S
Si5051 O5242   1.623   .     S
Si5051 O5243   1.626   .     S
Si5052 O5208   1.628   .     S
Si5052 O5209   1.623   .     S
Si5052 O5218   1.628   .     S
Si5053 O5209   1.622   .     S
Si5053 O5210   1.622   .     S
Si5053 O5222   1.623   .     S
Si5053 O5223   1.628   .     S
Si5054 O5160   1.629   .     S
Si5054 O5211   1.623   .     S
Si5054 O5221   1.626   .     S
Si5054 O5249   1.622   .     S
Si5055 O5211   1.621   .     S
Si5055 O5212   1.618   .     S
Si5055 O5216   1.625   .     S
Si5055 O5217   1.623   .     S
Si5056 O5212   1.622   .     S
Si5056 O5213   1.630   .     S
Si5056 O5244   1.621   .     S
Si5056 O5251   1.624   .     S
Si5057 O5213   1.633   .     S
Si5057 O5214   1.623   .     S
Si5057 O5241   1.623   .     S
Si5057 O5252   1.623   .     S
Si5058 O5214   1.626   .     S
Si5058 O5215   1.629   .     S
Si5058 O5218   1.625   .     S
Si5059 O5215   1.628   .     S
Si5059 O5216   1.630   .     S
Si5059 O5224   1.626   .     S
Si5059 O5250   1.623   .     S
Si5060 O5137   1.623   .     S
Si5060 O5227   1.625   .     S
Si5060 O5241   1.628   .     S
Si5060 O5242   1.625   .     S
Si5061 O5227   1.623   .     S
Si5061 O5228   1.624   .     S
Si5061 O5232   1.622   .     S
Si5061 O5239   1.623   .     S
Si5062 O5223   1.626   .     S
Si5062 O5224   1.626   .     S
Si5062 O5229   1.628   .     S
Si5063 O5220   1.623   .     S
Si5063 O5221   1.625   .     S
Si5063 O5229   1.623   .     S
Si5064 O5230   1.627   .     S
Si5064 O5231   1.622   .     S
Si5064 O5240   1.626   .     S
Si5064 O5247   1.623   .     S
Si5065 O5231   1.621   .     S
Si5065 O5232   1.622   .     S
Si5065 O5244   1.625   .     S
Si5065 O5245   1.625   .     S
Si5066 O5138   1.628   .     S
Si5066 O5233   1.622   .     S
Si5066 O5243   1.632   .     S
Si5066 O5253   1.620   .     S
Si5067 O5233   1.617   .     S
Si5067 O5234   1.619   .     S
Si5067 O5238   1.627   .     S
Si5067 O5239   1.623   .     S
Si5068 O5222   1.622   .     S
Si5068 O5235   1.632   .     S
Si5068 O5255   1.623   .     S
Si5069 O5219   1.622   .     S
Si5069 O5235   1.631   .     S
Si5069 O5256   1.625   .     S
Si5070 O5236   1.627   .     S
Si5070 O5237   1.624   .     S
Si5070 O5240   1.625   .     S
Si5070 O5248   1.625   .     S
Si5071 O5237   1.627   .     S
Si5071 O5238   1.629   .     S
Si5071 O5246   1.626   .     S
Si5071 O5254   1.621   .     S
Al5072 O5161   1.892   .     S
Al5072 O5162   1.714   .     S
Al5072 O5166   1.703   .     S
Al5072 O5173   1.715   .     S
O5093  Si3809  1.620   1_655 S
O5094  Si3815  1.625   1_655 S
O5096  Si1475  1.623   1_556 S
O5098  Si1476  1.621   1_556 S
O5102  Si1481  1.624   1_556 S
O5104  Si1482  1.621   1_556 S
O5161  H5265   1.007   .     S
O5225  Si3880  1.623   1_655 S
O5226  Si3886  1.626   1_655 S
O5228  Si1546  1.623   1_556 S
O5230  Si1547  1.622   1_556 S
O5234  Si1552  1.621   1_556 S
O5236  Si1553  1.625   1_556 S
H5266  C5272   1.090   .     S
H5267  C5273   1.087   .     S
H5268  C5270   1.090   .     S
H5269  C5271   1.086   .     S
C5270  C5271   1.370   .     D
C5270  C5272   1.431   .     S
C5271  S5274   1.726   .     S
C5272  C5273   1.370   .     D
C5273  S5274   1.729   .     S
