data_T9-O1-saifen-two\layers
_audit_creation_date              2023-04-09
_audit_creation_method            'Materials Studio'
_symmetry_space_group_name_H-M    'P1'
_symmetry_Int_Tables_number       1
_symmetry_cell_setting            triclinic
loop_
_symmetry_equiv_pos_as_xyz
  x,y,z
_cell_length_a                    61.1460
_cell_length_b                    40.3304
_cell_length_c                    40.7226
_cell_angle_alpha                 90.0000
_cell_angle_beta                  90.0000
_cell_angle_gamma                 90.0000
loop_
_atom_site_label
_atom_site_type_symbol
_atom_site_fract_x
_atom_site_fract_y
_atom_site_fract_z
_atom_site_U_iso_or_equiv
_atom_site_adp_type
_atom_site_occupancy
Si1    Si    0.14096   0.42298   0.04862   0.01267  Uiso   1.00
Si2    Si    0.10282   0.40810   0.09695   0.01267  Uiso   1.00
Si3    Si    0.09260   0.42159   0.17067   0.01267  Uiso   1.00
Si4    Si    0.04023   0.42434   0.17042   0.01267  Uiso   1.00
Si5    Si    0.02255   0.40720   0.09963   0.01267  Uiso   1.00
Si6    Si    0.06158   0.42442   0.05495   0.01267  Uiso   1.00
Si7    Si    0.14080   0.30650   0.05532   0.01267  Uiso   1.00
Si8    Si    0.10221   0.32979   0.10059   0.01267  Uiso   1.00
Si9    Si    0.03840   0.30747   0.17370   0.01267  Uiso   1.00
Si10   Si    0.02257   0.32808   0.10138   0.01267  Uiso   1.00
Si11   Si    0.06157   0.30484   0.05844   0.01267  Uiso   1.00
Si12   Si    0.02503   0.36400   0.21789   0.01267  Uiso   1.00
Si13   Si    0.06234   0.37694   0.26843   0.01267  Uiso   1.00
Si14   Si    0.07267   0.36181   0.00870   0.01267  Uiso   1.00
Si15   Si    0.12539   0.36046   0.00533   0.01267  Uiso   1.00
Si16   Si    0.14292   0.38055   0.26955   0.01267  Uiso   1.00
Si17   Si    0.10369   0.36499   0.22372   0.01267  Uiso   1.00
Si18   Si    0.02515   0.47821   0.22083   0.01267  Uiso   1.00
Si19   Si    0.06406   0.45703   0.26726   0.01267  Uiso   1.00
Si20   Si    0.07649   0.47913   0.00589   0.01267  Uiso   1.00
Si21   Si    0.12739   0.48090   0.00363   0.01267  Uiso   1.00
Si22   Si    0.14395   0.45876   0.26770   0.01267  Uiso   1.00
Si23   Si    0.10496   0.47672   0.22139   0.01267  Uiso   1.00
Si24   Si    0.19211   0.17141   0.27739   0.01267  Uiso   1.00
Si25   Si    0.23089   0.15709   0.22797   0.01267  Uiso   1.00
Si26   Si    0.23924   0.17508   0.15508   0.01267  Uiso   1.00
Si27   Si    0.29180   0.17518   0.15602   0.01267  Uiso   1.00
Si28   Si    0.30853   0.15709   0.22669   0.01267  Uiso   1.00
Si29   Si    0.27150   0.17015   0.27593   0.01267  Uiso   1.00
Si30   Si    0.19181   0.05719   0.27291   0.01267  Uiso   1.00
Si31   Si    0.23084   0.07839   0.22518   0.01267  Uiso   1.00
Si32   Si    0.24306   0.05615   0.15367   0.01267  Uiso   1.00
Si33   Si    0.29414   0.05614   0.15533   0.01267  Uiso   1.00
Si34   Si    0.31033   0.07794   0.22596   0.01267  Uiso   1.00
Si35   Si    0.27135   0.05734   0.27043   0.01267  Uiso   1.00
Si36   Si    0.30781   0.11488   0.11116   0.01267  Uiso   1.00
Si37   Si    0.26831   0.12873   0.06265   0.01267  Uiso   1.00
Si38   Si    0.25989   0.11020   0.32273   0.01267  Uiso   1.00
Si39   Si    0.20709   0.11072   0.32300   0.01267  Uiso   1.00
Si40   Si    0.19034   0.12868   0.06051   0.01267  Uiso   1.00
Si41   Si    0.22712   0.11468   0.10999   0.01267  Uiso   1.00
Si42   Si    0.30708   0.22884   0.10626   0.01267  Uiso   1.00
Si43   Si    0.26842   0.20814   0.05803   0.01267  Uiso   1.00
Si44   Si    0.25582   0.22881   0.31969   0.01267  Uiso   1.00
Si45   Si    0.20470   0.22946   0.32235   0.01267  Uiso   1.00
Si46   Si    0.18854   0.20759   0.05991   0.01267  Uiso   1.00
Si47   Si    0.22785   0.22952   0.10315   0.01267  Uiso   1.00
Si48   Si    0.19139   0.36398   0.27775   0.01267  Uiso   1.00
Si49   Si    0.22981   0.37890   0.22837   0.01267  Uiso   1.00
Si50   Si    0.23945   0.36228   0.15525   0.01267  Uiso   1.00
Si51   Si    0.29207   0.36100   0.15528   0.01267  Uiso   1.00
Si52   Si    0.30888   0.37918   0.22554   0.01267  Uiso   1.00
Si53   Si    0.27145   0.36436   0.27383   0.01267  Uiso   1.00
Si54   Si    0.19267   0.47989   0.27154   0.01267  Uiso   1.00
Si55   Si    0.23018   0.45812   0.22348   0.01267  Uiso   1.00
Si56   Si    0.24340   0.47839   0.15155   0.01267  Uiso   1.00
Si57   Si    0.29445   0.47968   0.15467   0.01267  Uiso   1.00
Si58   Si    0.30982   0.45764   0.22544   0.01267  Uiso   1.00
Si59   Si    0.27061   0.47903   0.26873   0.01267  Uiso   1.00
Si60   Si    0.30734   0.42148   0.10966   0.01267  Uiso   1.00
Si61   Si    0.26878   0.40665   0.06041   0.01267  Uiso   1.00
Si62   Si    0.25995   0.42401   0.32075   0.01267  Uiso   1.00
Si63   Si    0.20736   0.42485   0.32180   0.01267  Uiso   1.00
Si64   Si    0.22783   0.42099   0.10683   0.01267  Uiso   1.00
Si65   Si    0.30692   0.30653   0.10522   0.01267  Uiso   1.00
Si66   Si    0.26921   0.32747   0.05682   0.01267  Uiso   1.00
Si67   Si    0.25586   0.30655   0.31846   0.01267  Uiso   1.00
Si68   Si    0.20488   0.30616   0.32235   0.01267  Uiso   1.00
Si69   Si    0.22872   0.30786   0.10329   0.01267  Uiso   1.00
Si70   Si    0.14060   0.11342   0.05037   0.01267  Uiso   1.00
Si71   Si    0.10341   0.12614   0.09975   0.01267  Uiso   1.00
Si72   Si    0.09335   0.11230   0.17396   0.01267  Uiso   1.00
Si73   Si    0.04078   0.11041   0.17146   0.01267  Uiso   1.00
Si74   Si    0.02356   0.12842   0.10149   0.01267  Uiso   1.00
Si75   Si    0.06237   0.11249   0.05551   0.01267  Uiso   1.00
Si76   Si    0.14007   0.22907   0.05538   0.01267  Uiso   1.00
Si77   Si    0.10187   0.20511   0.10060   0.01267  Uiso   1.00
Si78   Si    0.09028   0.22722   0.17287   0.01267  Uiso   1.00
Si79   Si    0.03876   0.23032   0.17116   0.01267  Uiso   1.00
Si80   Si    0.02246   0.20724   0.10115   0.01267  Uiso   1.00
Si81   Si    0.06123   0.22713   0.05596   0.01267  Uiso   1.00
Si82   Si    0.02472   0.17162   0.21572   0.01267  Uiso   1.00
Si83   Si    0.06281   0.15617   0.26544   0.01267  Uiso   1.00
Si84   Si    0.07303   0.17253   0.00524   0.01267  Uiso   1.00
Si85   Si    0.12541   0.17523   0.00493   0.01267  Uiso   1.00
Si86   Si    0.14338   0.15682   0.26801   0.01267  Uiso   1.00
Si87   Si    0.10440   0.17253   0.22252   0.01267  Uiso   1.00
Si88   Si    0.02570   0.05568   0.22140   0.01267  Uiso   1.00
Si89   Si    0.06400   0.07646   0.26755   0.01267  Uiso   1.00
Si90   Si    0.07627   0.05798   0.00709   0.01267  Uiso   1.00
Si91   Si    0.12722   0.05698   0.00403   0.01267  Uiso   1.00
Si92   Si    0.14317   0.07764   0.26615   0.01267  Uiso   1.00
Si93   Si    0.10428   0.05476   0.22232   0.01267  Uiso   1.00
Si94   Si    0.19016   0.40816   0.05897   0.01267  Uiso   1.00
Si95   Si    0.18924   0.32902   0.05964   0.01267  Uiso   1.00
Al96   Al    0.09000   0.30751   0.17189   0.01267  Uiso   1.00
O97    O     0.12274   0.42634   0.07748   0.01267  Uiso   1.00
O98    O     0.10513   0.41609   0.13599   0.01267  Uiso   1.00
O99    O     0.06651   0.42387   0.16494   0.01267  Uiso   1.00
O100   O     0.02815   0.42325   0.13519   0.01267  Uiso   1.00
O101   O     0.03730   0.42396   0.07094   0.01267  Uiso   1.00
O102   O     0.07954   0.42280   0.08436   0.01267  Uiso   1.00
O103   O     0.12267   0.31005   0.08395   0.01267  Uiso   1.00
O104   O     0.10326   0.32633   0.13957   0.01267  Uiso   1.00
O105   O     0.06329   0.32007   0.17664   0.01267  Uiso   1.00
O106   O     0.02873   0.31240   0.13669   0.01267  Uiso   1.00
O107   O     0.03699   0.31059   0.07264   0.01267  Uiso   1.00
O108   O     0.07926   0.31450   0.08662   0.01267  Uiso   1.00
O109   O     0.10402   0.36866   0.08914   0.01267  Uiso   1.00
O110   O     0.02742   0.36770   0.10106   0.01267  Uiso   1.00
O111   O     0.14188   0.45711   0.02726   0.01267  Uiso   1.00
O112   O     0.13567   0.39215   0.02426   0.01267  Uiso   1.00
O113   O     0.13319   0.32606   0.02226   0.01267  Uiso   1.00
O114   O     0.06427   0.45904   0.03503   0.01267  Uiso   1.00
O115   O     0.06445   0.39316   0.03027   0.01267  Uiso   1.00
O116   O     0.06536   0.32720   0.02565   0.01267  Uiso   1.00
O117   O     0.33044   0.41518   0.09099   0.01267  Uiso   1.00
O118   O     0.33015   0.32198   0.09332   0.01267  Uiso   1.00
O119   O     0.04211   0.36110   0.24839   0.01267  Uiso   1.00
O120   O     0.06147   0.36377   0.30590   0.01267  Uiso   1.00
O121   O     0.09904   0.36327   0.00482   0.01267  Uiso   1.00
O122   O     0.13438   0.35975   0.30106   0.01267  Uiso   1.00
O123   O     0.12799   0.37139   0.23761   0.01267  Uiso   1.00
O124   O     0.08549   0.36454   0.25220   0.01267  Uiso   1.00
O125   O     0.04333   0.47433   0.24956   0.01267  Uiso   1.00
O126   O     0.06479   0.47056   0.30455   0.01267  Uiso   1.00
O127   O     0.10212   0.46790   0.00407   0.01267  Uiso   1.00
O128   O     0.13675   0.48032   0.29956   0.01267  Uiso   1.00
O129   O     0.12914   0.46877   0.23615   0.01267  Uiso   1.00
O130   O     0.08676   0.46633   0.24865   0.01267  Uiso   1.00
O131   O     0.06127   0.41705   0.26675   0.01267  Uiso   1.00
O132   O     0.14060   0.41983   0.27699   0.01267  Uiso   1.00
O133   O     0.02304   0.32877   0.19900   0.01267  Uiso   1.00
O134   O     0.03314   0.39284   0.19271   0.01267  Uiso   1.00
O135   O     0.03317   0.45881   0.18803   0.01267  Uiso   1.00
O136   O     0.10535   0.32613   0.20771   0.01267  Uiso   1.00
O137   O     0.09763   0.38971   0.19429   0.01267  Uiso   1.00
O138   O     0.10161   0.45522   0.18797   0.01267  Uiso   1.00
O139   O     0.16780   0.37018   0.26030   0.01267  Uiso   1.00
O140   O     0.16938   0.46554   0.25836   0.01267  Uiso   1.00
O141   O     0.21094   0.17230   0.24937   0.01267  Uiso   1.00
O142   O     0.23203   0.17728   0.19343   0.01267  Uiso   1.00
O143   O     0.26555   0.17091   0.15160   0.01267  Uiso   1.00
O144   O     0.29836   0.17555   0.19455   0.01267  Uiso   1.00
O145   O     0.29563   0.16945   0.25936   0.01267  Uiso   1.00
O146   O     0.25368   0.16160   0.24765   0.01267  Uiso   1.00
O147   O     0.21075   0.06225   0.24550   0.01267  Uiso   1.00
O148   O     0.23163   0.06082   0.18941   0.01267  Uiso   1.00
O149   O     0.26858   0.06783   0.15554   0.01267  Uiso   1.00
O150   O     0.30386   0.05878   0.19227   0.01267  Uiso   1.00
O151   O     0.29594   0.06297   0.25619   0.01267  Uiso   1.00
O152   O     0.25389   0.07226   0.24410   0.01267  Uiso   1.00
O153   O     0.22680   0.11794   0.22087   0.01267  Uiso   1.00
O154   O     0.30554   0.11729   0.22179   0.01267  Uiso   1.00
O155   O     0.19138   0.20719   0.29583   0.01267  Uiso   1.00
O156   O     0.19671   0.14287   0.30472   0.01267  Uiso   1.00
O157   O     0.19776   0.07699   0.30646   0.01267  Uiso   1.00
O158   O     0.26718   0.20684   0.29104   0.01267  Uiso   1.00
O159   O     0.27037   0.14279   0.30524   0.01267  Uiso   1.00
O160   O     0.26875   0.07642   0.30540   0.01267  Uiso   1.00
O161   O     0.00069   0.16662   0.23194   0.01267  Uiso   1.00
O162   O     0.00272   0.07178   0.23386   0.01267  Uiso   1.00
O163   O     0.28896   0.11452   0.08319   0.01267  Uiso   1.00
O164   O     0.26713   0.10944   0.02770   0.01267  Uiso   1.00
O165   O     0.23345   0.11205   0.31929   0.01267  Uiso   1.00
O166   O     0.20001   0.11054   0.02796   0.01267  Uiso   1.00
O167   O     0.20325   0.11510   0.09261   0.01267  Uiso   1.00
O168   O     0.24577   0.12219   0.08262   0.01267  Uiso   1.00
O169   O     0.28870   0.22435   0.07783   0.01267  Uiso   1.00
O170   O     0.26836   0.22320   0.02107   0.01267  Uiso   1.00
O171   O     0.23022   0.21773   0.32358   0.01267  Uiso   1.00
O172   O     0.19409   0.22596   0.02536   0.01267  Uiso   1.00
O173   O     0.20313   0.22364   0.08935   0.01267  Uiso   1.00
O174   O     0.24526   0.21721   0.07556   0.01267  Uiso   1.00
O175   O     0.27132   0.16822   0.05654   0.01267  Uiso   1.00
O176   O     0.19406   0.16841   0.05651   0.01267  Uiso   1.00
O177   O     0.30793   0.07955   0.13042   0.01267  Uiso   1.00
O178   O     0.30388   0.14447   0.13767   0.01267  Uiso   1.00
O179   O     0.29949   0.21009   0.13983   0.01267  Uiso   1.00
O180   O     0.23056   0.07831   0.12628   0.01267  Uiso   1.00
O181   O     0.22766   0.14295   0.13846   0.01267  Uiso   1.00
O182   O     0.23126   0.20906   0.13720   0.01267  Uiso   1.00
O183   O     0.16464   0.12040   0.06566   0.01267  Uiso   1.00
O184   O     0.16288   0.21303   0.06885   0.01267  Uiso   1.00
O185   O     0.21016   0.36250   0.24972   0.01267  Uiso   1.00
O186   O     0.22997   0.36150   0.19248   0.01267  Uiso   1.00
O187   O     0.26583   0.36684   0.15557   0.01267  Uiso   1.00
O188   O     0.30148   0.35966   0.19244   0.01267  Uiso   1.00
O189   O     0.29538   0.36465   0.25672   0.01267  Uiso   1.00
O190   O     0.25311   0.37251   0.24616   0.01267  Uiso   1.00
O191   O     0.21043   0.47738   0.24201   0.01267  Uiso   1.00
O192   O     0.23057   0.47023   0.18556   0.01267  Uiso   1.00
O193   O     0.26898   0.46765   0.15539   0.01267  Uiso   1.00
O194   O     0.30450   0.47701   0.19141   0.01267  Uiso   1.00
O195   O     0.29536   0.47305   0.25532   0.01267  Uiso   1.00
O196   O     0.25352   0.46671   0.24059   0.01267  Uiso   1.00
O197   O     0.22560   0.41853   0.22529   0.01267  Uiso   1.00
O198   O     0.30392   0.41861   0.22092   0.01267  Uiso   1.00
O199   O     0.19061   0.32874   0.29719   0.01267  Uiso   1.00
O200   O     0.19554   0.39364   0.30396   0.01267  Uiso   1.00
O201   O     0.20081   0.45919   0.30354   0.01267  Uiso   1.00
O202   O     0.26746   0.32780   0.28946   0.01267  Uiso   1.00
O203   O     0.27092   0.39228   0.30261   0.01267  Uiso   1.00
O204   O     0.26675   0.45840   0.30258   0.01267  Uiso   1.00
O205   O     0.00130   0.37364   0.23292   0.01267  Uiso   1.00
O206   O     0.00220   0.46271   0.23428   0.01267  Uiso   1.00
O207   O     0.28797   0.42292   0.08254   0.01267  Uiso   1.00
O208   O     0.26861   0.42535   0.02506   0.01267  Uiso   1.00
O209   O     0.23357   0.41942   0.32001   0.01267  Uiso   1.00
O210   O     0.19914   0.42698   0.02624   0.01267  Uiso   1.00
O211   O     0.20352   0.42098   0.09093   0.01267  Uiso   1.00
O212   O     0.24524   0.41171   0.07814   0.01267  Uiso   1.00
O213   O     0.28952   0.30971   0.07524   0.01267  Uiso   1.00
O214   O     0.26819   0.31298   0.01978   0.01267  Uiso   1.00
O215   O     0.23033   0.31815   0.32155   0.01267  Uiso   1.00
O216   O     0.19548   0.30933   0.02613   0.01267  Uiso   1.00
O217   O     0.20420   0.31556   0.08980   0.01267  Uiso   1.00
O218   O     0.24627   0.31945   0.07548   0.01267  Uiso   1.00
O219   O     0.27321   0.36725   0.05572   0.01267  Uiso   1.00
O220   O     0.19336   0.36840   0.05405   0.01267  Uiso   1.00
O221   O     0.30812   0.45664   0.12923   0.01267  Uiso   1.00
O222   O     0.30347   0.39163   0.13587   0.01267  Uiso   1.00
O223   O     0.29778   0.32611   0.13740   0.01267  Uiso   1.00
O224   O     0.23259   0.45769   0.12154   0.01267  Uiso   1.00
O225   O     0.22873   0.39368   0.13615   0.01267  Uiso   1.00
O226   O     0.23287   0.32769   0.13740   0.01267  Uiso   1.00
O227   O     0.16467   0.41712   0.06540   0.01267  Uiso   1.00
O228   O     0.16381   0.32183   0.06891   0.01267  Uiso   1.00
O229   O     0.12320   0.10780   0.08008   0.01267  Uiso   1.00
O230   O     0.10477   0.11555   0.13811   0.01267  Uiso   1.00
O231   O     0.06702   0.11618   0.17073   0.01267  Uiso   1.00
O232   O     0.03137   0.10868   0.13429   0.01267  Uiso   1.00
O233   O     0.03779   0.11619   0.07007   0.01267  Uiso   1.00
O234   O     0.07978   0.11441   0.08563   0.01267  Uiso   1.00
O235   O     0.12174   0.22612   0.08404   0.01267  Uiso   1.00
O236   O     0.10125   0.21253   0.13938   0.01267  Uiso   1.00
O237   O     0.06413   0.21837   0.17183   0.01267  Uiso   1.00
O238   O     0.02930   0.22763   0.13387   0.01267  Uiso   1.00
O239   O     0.03666   0.22007   0.06980   0.01267  Uiso   1.00
O240   O     0.07869   0.21522   0.08373   0.01267  Uiso   1.00
O241   O     0.10635   0.16584   0.09455   0.01267  Uiso   1.00
O242   O     0.02693   0.16797   0.10734   0.01267  Uiso   1.00
O243   O     0.14192   0.08009   0.02798   0.01267  Uiso   1.00
O244   O     0.13318   0.14443   0.02762   0.01267  Uiso   1.00
O245   O     0.13198   0.21005   0.02233   0.01267  Uiso   1.00
O246   O     0.06431   0.07670   0.03740   0.01267  Uiso   1.00
O247   O     0.06716   0.14181   0.02930   0.01267  Uiso   1.00
O248   O     0.06494   0.20712   0.02171   0.01267  Uiso   1.00
O249   O     0.33140   0.12014   0.09361   0.01267  Uiso   1.00
O250   O     0.33005   0.21347   0.09297   0.01267  Uiso   1.00
O251   O     0.04281   0.17260   0.24493   0.01267  Uiso   1.00
O252   O     0.06066   0.16730   0.30366   0.01267  Uiso   1.00
O253   O     0.09925   0.17347   0.33245   0.01267  Uiso   1.00
O254   O     0.13783   0.17373   0.30318   0.01267  Uiso   1.00
O255   O     0.12857   0.17276   0.23913   0.01267  Uiso   1.00
O256   O     0.08620   0.16893   0.25149   0.01267  Uiso   1.00
O257   O     0.04316   0.05773   0.25137   0.01267  Uiso   1.00
O258   O     0.06416   0.06810   0.30643   0.01267  Uiso   1.00
O259   O     0.10186   0.06948   0.00515   0.01267  Uiso   1.00
O260   O     0.13638   0.05899   0.30002   0.01267  Uiso   1.00
O261   O     0.12868   0.06309   0.23597   0.01267  Uiso   1.00
O262   O     0.08665   0.06312   0.25119   0.01267  Uiso   1.00
O263   O     0.06154   0.11605   0.26161   0.01267  Uiso   1.00
O264   O     0.13892   0.11713   0.27032   0.01267  Uiso   1.00
O265   O     0.02478   0.20637   0.19558   0.01267  Uiso   1.00
O266   O     0.02934   0.14097   0.19076   0.01267  Uiso   1.00
O267   O     0.03494   0.07547   0.18942   0.01267  Uiso   1.00
O268   O     0.10121   0.20733   0.20357   0.01267  Uiso   1.00
O269   O     0.10281   0.14119   0.19760   0.01267  Uiso   1.00
O270   O     0.09929   0.07614   0.18936   0.01267  Uiso   1.00
O271   O     0.16889   0.16442   0.25938   0.01267  Uiso   1.00
O272   O     0.16878   0.07061   0.25789   0.01267  Uiso   1.00
O273   O     0.14397   0.26772   0.04591   0.01267  Uiso   1.00
O274   O     0.06436   0.26626   0.04797   0.01267  Uiso   1.00
O275   O     0.09479   0.26600   0.17667   0.01267  Uiso   1.00
O276   O     0.03596   0.26833   0.18339   0.01267  Uiso   1.00
O277   O     0.02221   0.01707   0.21143   0.01267  Uiso   1.00
O278   O     0.10279   0.01576   0.21245   0.01267  Uiso   1.00
O279   O     0.07453   0.01841   0.01340   0.01267  Uiso   1.00
O280   O     0.12889   0.01883   0.01681   0.01267  Uiso   1.00
O281   O     0.18990   0.01826   0.28247   0.01267  Uiso   1.00
O282   O     0.26689   0.01810   0.27649   0.01267  Uiso   1.00
O283   O     0.24137   0.01753   0.14285   0.01267  Uiso   1.00
O284   O     0.29622   0.01804   0.14272   0.01267  Uiso   1.00
O285   O     0.30982   0.26781   0.11494   0.01267  Uiso   1.00
O286   O     0.23126   0.26858   0.11101   0.01267  Uiso   1.00
O287   O     0.25738   0.26754   0.30898   0.01267  Uiso   1.00
O288   O     0.20281   0.26784   0.31053   0.01267  Uiso   1.00
Si289  Si    0.14096   0.92298   0.04862   0.01267  Uiso   1.00
Si290  Si    0.10282   0.90810   0.09695   0.01267  Uiso   1.00
Si291  Si    0.09260   0.92159   0.17067   0.01267  Uiso   1.00
Si292  Si    0.04023   0.92434   0.17042   0.01267  Uiso   1.00
Si293  Si    0.02255   0.90720   0.09963   0.01267  Uiso   1.00
Si294  Si    0.06158   0.92442   0.05495   0.01267  Uiso   1.00
Si295  Si    0.14080   0.80650   0.05532   0.01267  Uiso   1.00
Si296  Si    0.10221   0.82979   0.10059   0.01267  Uiso   1.00
Si297  Si    0.03840   0.80747   0.17370   0.01267  Uiso   1.00
Si298  Si    0.02257   0.82808   0.10138   0.01267  Uiso   1.00
Si299  Si    0.06157   0.80484   0.05844   0.01267  Uiso   1.00
Si300  Si    0.02503   0.86400   0.21789   0.01267  Uiso   1.00
Si301  Si    0.06234   0.87694   0.26843   0.01267  Uiso   1.00
Si302  Si    0.07267   0.86181   0.00870   0.01267  Uiso   1.00
Si303  Si    0.12539   0.86046   0.00533   0.01267  Uiso   1.00
Si304  Si    0.14292   0.88055   0.26955   0.01267  Uiso   1.00
Si305  Si    0.10369   0.86499   0.22372   0.01267  Uiso   1.00
Si306  Si    0.02515   0.97821   0.22083   0.01267  Uiso   1.00
Si307  Si    0.06406   0.95703   0.26726   0.01267  Uiso   1.00
Si308  Si    0.07649   0.97913   0.00589   0.01267  Uiso   1.00
Si309  Si    0.12739   0.98090   0.00363   0.01267  Uiso   1.00
Si310  Si    0.14395   0.95876   0.26770   0.01267  Uiso   1.00
Si311  Si    0.10496   0.97672   0.22139   0.01267  Uiso   1.00
Si312  Si    0.19211   0.67141   0.27739   0.01267  Uiso   1.00
Si313  Si    0.23089   0.65709   0.22797   0.01267  Uiso   1.00
Si314  Si    0.23924   0.67508   0.15508   0.01267  Uiso   1.00
Si315  Si    0.29180   0.67518   0.15602   0.01267  Uiso   1.00
Si316  Si    0.30853   0.65709   0.22669   0.01267  Uiso   1.00
Si317  Si    0.27150   0.67015   0.27593   0.01267  Uiso   1.00
Si318  Si    0.19181   0.55719   0.27291   0.01267  Uiso   1.00
Si319  Si    0.23084   0.57839   0.22518   0.01267  Uiso   1.00
Si320  Si    0.24306   0.55615   0.15367   0.01267  Uiso   1.00
Si321  Si    0.29414   0.55614   0.15533   0.01267  Uiso   1.00
Si322  Si    0.31033   0.57794   0.22596   0.01267  Uiso   1.00
Si323  Si    0.27135   0.55734   0.27043   0.01267  Uiso   1.00
Si324  Si    0.30781   0.61488   0.11116   0.01267  Uiso   1.00
Si325  Si    0.26831   0.62873   0.06265   0.01267  Uiso   1.00
Si326  Si    0.25989   0.61020   0.32273   0.01267  Uiso   1.00
Si327  Si    0.20709   0.61072   0.32300   0.01267  Uiso   1.00
Si328  Si    0.19034   0.62868   0.06051   0.01267  Uiso   1.00
Si329  Si    0.22712   0.61468   0.10999   0.01267  Uiso   1.00
Si330  Si    0.30708   0.72884   0.10626   0.01267  Uiso   1.00
Si331  Si    0.26842   0.70814   0.05803   0.01267  Uiso   1.00
Si332  Si    0.25582   0.72881   0.31969   0.01267  Uiso   1.00
Si333  Si    0.20470   0.72946   0.32235   0.01267  Uiso   1.00
Si334  Si    0.18854   0.70759   0.05991   0.01267  Uiso   1.00
Si335  Si    0.22785   0.72952   0.10315   0.01267  Uiso   1.00
Si336  Si    0.19139   0.86398   0.27775   0.01267  Uiso   1.00
Si337  Si    0.22981   0.87890   0.22837   0.01267  Uiso   1.00
Si338  Si    0.23945   0.86228   0.15525   0.01267  Uiso   1.00
Si339  Si    0.29207   0.86100   0.15528   0.01267  Uiso   1.00
Si340  Si    0.30888   0.87918   0.22554   0.01267  Uiso   1.00
Si341  Si    0.27145   0.86436   0.27383   0.01267  Uiso   1.00
Si342  Si    0.19267   0.97989   0.27154   0.01267  Uiso   1.00
Si343  Si    0.23018   0.95812   0.22348   0.01267  Uiso   1.00
Si344  Si    0.24340   0.97839   0.15155   0.01267  Uiso   1.00
Si345  Si    0.29445   0.97968   0.15467   0.01267  Uiso   1.00
Si346  Si    0.30982   0.95764   0.22544   0.01267  Uiso   1.00
Si347  Si    0.27061   0.97903   0.26873   0.01267  Uiso   1.00
Si348  Si    0.30734   0.92148   0.10966   0.01267  Uiso   1.00
Si349  Si    0.26878   0.90665   0.06041   0.01267  Uiso   1.00
Si350  Si    0.25995   0.92401   0.32075   0.01267  Uiso   1.00
Si351  Si    0.20736   0.92485   0.32180   0.01267  Uiso   1.00
Si352  Si    0.22783   0.92099   0.10683   0.01267  Uiso   1.00
Si353  Si    0.30692   0.80653   0.10522   0.01267  Uiso   1.00
Si354  Si    0.26921   0.82747   0.05682   0.01267  Uiso   1.00
Si355  Si    0.25586   0.80655   0.31846   0.01267  Uiso   1.00
Si356  Si    0.20488   0.80616   0.32235   0.01267  Uiso   1.00
Si357  Si    0.22872   0.80786   0.10329   0.01267  Uiso   1.00
Si358  Si    0.14060   0.61342   0.05037   0.01267  Uiso   1.00
Si359  Si    0.10341   0.62614   0.09975   0.01267  Uiso   1.00
Si360  Si    0.09335   0.61230   0.17396   0.01267  Uiso   1.00
Si361  Si    0.04078   0.61041   0.17146   0.01267  Uiso   1.00
Si362  Si    0.02356   0.62842   0.10149   0.01267  Uiso   1.00
Si363  Si    0.06237   0.61249   0.05551   0.01267  Uiso   1.00
Si364  Si    0.14007   0.72907   0.05538   0.01267  Uiso   1.00
Si365  Si    0.10187   0.70511   0.10060   0.01267  Uiso   1.00
Si366  Si    0.09028   0.72722   0.17287   0.01267  Uiso   1.00
Si367  Si    0.03876   0.73032   0.17116   0.01267  Uiso   1.00
Si368  Si    0.02246   0.70724   0.10115   0.01267  Uiso   1.00
Si369  Si    0.06123   0.72713   0.05596   0.01267  Uiso   1.00
Si370  Si    0.02472   0.67162   0.21572   0.01267  Uiso   1.00
Si371  Si    0.06281   0.65617   0.26544   0.01267  Uiso   1.00
Si372  Si    0.07303   0.67253   0.00524   0.01267  Uiso   1.00
Si373  Si    0.12541   0.67523   0.00493   0.01267  Uiso   1.00
Si374  Si    0.14338   0.65682   0.26801   0.01267  Uiso   1.00
Si375  Si    0.10440   0.67253   0.22252   0.01267  Uiso   1.00
Si376  Si    0.02570   0.55568   0.22140   0.01267  Uiso   1.00
Si377  Si    0.06400   0.57646   0.26755   0.01267  Uiso   1.00
Si378  Si    0.07627   0.55798   0.00709   0.01267  Uiso   1.00
Si379  Si    0.12722   0.55698   0.00403   0.01267  Uiso   1.00
Si380  Si    0.14317   0.57764   0.26615   0.01267  Uiso   1.00
Si381  Si    0.10428   0.55476   0.22232   0.01267  Uiso   1.00
Si382  Si    0.19016   0.90816   0.05897   0.01267  Uiso   1.00
Si383  Si    0.18924   0.82902   0.05964   0.01267  Uiso   1.00
Al384  Al    0.09000   0.80751   0.17189   0.01267  Uiso   1.00
O385   O     0.12274   0.92634   0.07748   0.01267  Uiso   1.00
O386   O     0.10513   0.91609   0.13599   0.01267  Uiso   1.00
O387   O     0.06651   0.92387   0.16494   0.01267  Uiso   1.00
O388   O     0.02815   0.92325   0.13519   0.01267  Uiso   1.00
O389   O     0.03730   0.92396   0.07094   0.01267  Uiso   1.00
O390   O     0.07954   0.92280   0.08436   0.01267  Uiso   1.00
O391   O     0.12267   0.81005   0.08395   0.01267  Uiso   1.00
O392   O     0.10326   0.82633   0.13957   0.01267  Uiso   1.00
O393   O     0.06329   0.82007   0.17664   0.01267  Uiso   1.00
O394   O     0.02873   0.81240   0.13669   0.01267  Uiso   1.00
O395   O     0.03699   0.81059   0.07264   0.01267  Uiso   1.00
O396   O     0.07926   0.81450   0.08662   0.01267  Uiso   1.00
O397   O     0.10402   0.86866   0.08914   0.01267  Uiso   1.00
O398   O     0.02742   0.86770   0.10106   0.01267  Uiso   1.00
O399   O     0.14188   0.95711   0.02726   0.01267  Uiso   1.00
O400   O     0.13567   0.89215   0.02426   0.01267  Uiso   1.00
O401   O     0.13319   0.82606   0.02226   0.01267  Uiso   1.00
O402   O     0.06427   0.95904   0.03503   0.01267  Uiso   1.00
O403   O     0.06445   0.89316   0.03027   0.01267  Uiso   1.00
O404   O     0.06536   0.82720   0.02565   0.01267  Uiso   1.00
O405   O     0.33044   0.91518   0.09099   0.01267  Uiso   1.00
O406   O     0.33015   0.82198   0.09332   0.01267  Uiso   1.00
O407   O     0.04211   0.86110   0.24839   0.01267  Uiso   1.00
O408   O     0.06147   0.86377   0.30590   0.01267  Uiso   1.00
O409   O     0.09904   0.86327   0.00482   0.01267  Uiso   1.00
O410   O     0.13438   0.85975   0.30106   0.01267  Uiso   1.00
O411   O     0.12799   0.87139   0.23761   0.01267  Uiso   1.00
O412   O     0.08549   0.86454   0.25220   0.01267  Uiso   1.00
O413   O     0.04333   0.97433   0.24956   0.01267  Uiso   1.00
O414   O     0.06479   0.97056   0.30455   0.01267  Uiso   1.00
O415   O     0.10212   0.96790   0.00407   0.01267  Uiso   1.00
O416   O     0.13675   0.98032   0.29956   0.01267  Uiso   1.00
O417   O     0.12914   0.96877   0.23615   0.01267  Uiso   1.00
O418   O     0.08676   0.96633   0.24865   0.01267  Uiso   1.00
O419   O     0.06127   0.91705   0.26675   0.01267  Uiso   1.00
O420   O     0.14060   0.91983   0.27699   0.01267  Uiso   1.00
O421   O     0.02304   0.82877   0.19900   0.01267  Uiso   1.00
O422   O     0.03314   0.89284   0.19271   0.01267  Uiso   1.00
O423   O     0.03317   0.95881   0.18803   0.01267  Uiso   1.00
O424   O     0.10535   0.82613   0.20771   0.01267  Uiso   1.00
O425   O     0.09763   0.88971   0.19429   0.01267  Uiso   1.00
O426   O     0.10161   0.95522   0.18797   0.01267  Uiso   1.00
O427   O     0.16780   0.87018   0.26030   0.01267  Uiso   1.00
O428   O     0.16938   0.96554   0.25836   0.01267  Uiso   1.00
O429   O     0.21094   0.67230   0.24937   0.01267  Uiso   1.00
O430   O     0.23203   0.67728   0.19343   0.01267  Uiso   1.00
O431   O     0.26555   0.67091   0.15160   0.01267  Uiso   1.00
O432   O     0.29836   0.67555   0.19455   0.01267  Uiso   1.00
O433   O     0.29563   0.66945   0.25936   0.01267  Uiso   1.00
O434   O     0.25368   0.66160   0.24765   0.01267  Uiso   1.00
O435   O     0.21075   0.56225   0.24550   0.01267  Uiso   1.00
O436   O     0.23163   0.56082   0.18941   0.01267  Uiso   1.00
O437   O     0.26858   0.56783   0.15554   0.01267  Uiso   1.00
O438   O     0.30386   0.55878   0.19227   0.01267  Uiso   1.00
O439   O     0.29594   0.56297   0.25619   0.01267  Uiso   1.00
O440   O     0.25389   0.57226   0.24410   0.01267  Uiso   1.00
O441   O     0.22680   0.61794   0.22087   0.01267  Uiso   1.00
O442   O     0.30554   0.61729   0.22179   0.01267  Uiso   1.00
O443   O     0.19138   0.70719   0.29583   0.01267  Uiso   1.00
O444   O     0.19671   0.64287   0.30472   0.01267  Uiso   1.00
O445   O     0.19776   0.57699   0.30646   0.01267  Uiso   1.00
O446   O     0.26718   0.70684   0.29104   0.01267  Uiso   1.00
O447   O     0.27037   0.64279   0.30524   0.01267  Uiso   1.00
O448   O     0.26875   0.57642   0.30540   0.01267  Uiso   1.00
O449   O     0.00069   0.66662   0.23194   0.01267  Uiso   1.00
O450   O     0.00272   0.57178   0.23386   0.01267  Uiso   1.00
O451   O     0.28896   0.61452   0.08319   0.01267  Uiso   1.00
O452   O     0.26713   0.60944   0.02770   0.01267  Uiso   1.00
O453   O     0.23345   0.61205   0.31929   0.01267  Uiso   1.00
O454   O     0.20001   0.61054   0.02796   0.01267  Uiso   1.00
O455   O     0.20325   0.61510   0.09261   0.01267  Uiso   1.00
O456   O     0.24577   0.62219   0.08262   0.01267  Uiso   1.00
O457   O     0.28870   0.72435   0.07783   0.01267  Uiso   1.00
O458   O     0.26836   0.72320   0.02107   0.01267  Uiso   1.00
O459   O     0.23022   0.71773   0.32358   0.01267  Uiso   1.00
O460   O     0.19409   0.72596   0.02536   0.01267  Uiso   1.00
O461   O     0.20313   0.72364   0.08935   0.01267  Uiso   1.00
O462   O     0.24526   0.71721   0.07556   0.01267  Uiso   1.00
O463   O     0.27132   0.66822   0.05654   0.01267  Uiso   1.00
O464   O     0.19406   0.66841   0.05651   0.01267  Uiso   1.00
O465   O     0.30793   0.57955   0.13042   0.01267  Uiso   1.00
O466   O     0.30388   0.64447   0.13767   0.01267  Uiso   1.00
O467   O     0.29949   0.71009   0.13983   0.01267  Uiso   1.00
O468   O     0.23056   0.57831   0.12628   0.01267  Uiso   1.00
O469   O     0.22766   0.64295   0.13846   0.01267  Uiso   1.00
O470   O     0.23126   0.70906   0.13720   0.01267  Uiso   1.00
O471   O     0.16464   0.62040   0.06566   0.01267  Uiso   1.00
O472   O     0.16288   0.71303   0.06885   0.01267  Uiso   1.00
O473   O     0.21016   0.86250   0.24972   0.01267  Uiso   1.00
O474   O     0.22997   0.86150   0.19248   0.01267  Uiso   1.00
O475   O     0.26583   0.86684   0.15557   0.01267  Uiso   1.00
O476   O     0.30148   0.85966   0.19244   0.01267  Uiso   1.00
O477   O     0.29538   0.86465   0.25672   0.01267  Uiso   1.00
O478   O     0.25311   0.87251   0.24616   0.01267  Uiso   1.00
O479   O     0.21043   0.97738   0.24201   0.01267  Uiso   1.00
O480   O     0.23057   0.97023   0.18556   0.01267  Uiso   1.00
O481   O     0.26898   0.96765   0.15539   0.01267  Uiso   1.00
O482   O     0.30450   0.97701   0.19141   0.01267  Uiso   1.00
O483   O     0.29536   0.97304   0.25532   0.01267  Uiso   1.00
O484   O     0.25352   0.96671   0.24059   0.01267  Uiso   1.00
O485   O     0.22560   0.91853   0.22529   0.01267  Uiso   1.00
O486   O     0.30392   0.91861   0.22092   0.01267  Uiso   1.00
O487   O     0.19061   0.82874   0.29719   0.01267  Uiso   1.00
O488   O     0.19554   0.89364   0.30396   0.01267  Uiso   1.00
O489   O     0.20081   0.95919   0.30354   0.01267  Uiso   1.00
O490   O     0.26746   0.82780   0.28946   0.01267  Uiso   1.00
O491   O     0.27092   0.89228   0.30261   0.01267  Uiso   1.00
O492   O     0.26675   0.95840   0.30258   0.01267  Uiso   1.00
O493   O     0.00130   0.87364   0.23292   0.01267  Uiso   1.00
O494   O     0.00220   0.96271   0.23428   0.01267  Uiso   1.00
O495   O     0.28797   0.92292   0.08254   0.01267  Uiso   1.00
O496   O     0.26861   0.92535   0.02506   0.01267  Uiso   1.00
O497   O     0.23357   0.91942   0.32001   0.01267  Uiso   1.00
O498   O     0.19914   0.92698   0.02624   0.01267  Uiso   1.00
O499   O     0.20352   0.92098   0.09093   0.01267  Uiso   1.00
O500   O     0.24524   0.91171   0.07814   0.01267  Uiso   1.00
O501   O     0.28952   0.80971   0.07524   0.01267  Uiso   1.00
O502   O     0.26819   0.81298   0.01978   0.01267  Uiso   1.00
O503   O     0.23033   0.81815   0.32155   0.01267  Uiso   1.00
O504   O     0.19548   0.80933   0.02613   0.01267  Uiso   1.00
O505   O     0.20420   0.81556   0.08980   0.01267  Uiso   1.00
O506   O     0.24627   0.81945   0.07548   0.01267  Uiso   1.00
O507   O     0.27321   0.86725   0.05572   0.01267  Uiso   1.00
O508   O     0.19336   0.86840   0.05405   0.01267  Uiso   1.00
O509   O     0.30812   0.95664   0.12923   0.01267  Uiso   1.00
O510   O     0.30347   0.89163   0.13587   0.01267  Uiso   1.00
O511   O     0.29778   0.82611   0.13740   0.01267  Uiso   1.00
O512   O     0.23259   0.95769   0.12154   0.01267  Uiso   1.00
O513   O     0.22873   0.89368   0.13615   0.01267  Uiso   1.00
O514   O     0.23287   0.82769   0.13740   0.01267  Uiso   1.00
O515   O     0.16467   0.91712   0.06540   0.01267  Uiso   1.00
O516   O     0.16381   0.82183   0.06891   0.01267  Uiso   1.00
O517   O     0.12320   0.60780   0.08008   0.01267  Uiso   1.00
O518   O     0.10477   0.61555   0.13811   0.01267  Uiso   1.00
O519   O     0.06702   0.61618   0.17073   0.01267  Uiso   1.00
O520   O     0.03137   0.60868   0.13429   0.01267  Uiso   1.00
O521   O     0.03779   0.61619   0.07007   0.01267  Uiso   1.00
O522   O     0.07978   0.61441   0.08563   0.01267  Uiso   1.00
O523   O     0.12174   0.72612   0.08404   0.01267  Uiso   1.00
O524   O     0.10125   0.71253   0.13938   0.01267  Uiso   1.00
O525   O     0.06413   0.71837   0.17183   0.01267  Uiso   1.00
O526   O     0.02930   0.72763   0.13387   0.01267  Uiso   1.00
O527   O     0.03666   0.72007   0.06980   0.01267  Uiso   1.00
O528   O     0.07869   0.71522   0.08373   0.01267  Uiso   1.00
O529   O     0.10635   0.66584   0.09455   0.01267  Uiso   1.00
O530   O     0.02693   0.66797   0.10734   0.01267  Uiso   1.00
O531   O     0.14192   0.58009   0.02798   0.01267  Uiso   1.00
O532   O     0.13318   0.64443   0.02762   0.01267  Uiso   1.00
O533   O     0.13198   0.71005   0.02233   0.01267  Uiso   1.00
O534   O     0.06431   0.57670   0.03740   0.01267  Uiso   1.00
O535   O     0.06716   0.64181   0.02930   0.01267  Uiso   1.00
O536   O     0.06494   0.70712   0.02171   0.01267  Uiso   1.00
O537   O     0.33140   0.62014   0.09361   0.01267  Uiso   1.00
O538   O     0.33005   0.71347   0.09297   0.01267  Uiso   1.00
O539   O     0.04281   0.67260   0.24493   0.01267  Uiso   1.00
O540   O     0.06066   0.66730   0.30366   0.01267  Uiso   1.00
O541   O     0.09925   0.67347   0.33245   0.01267  Uiso   1.00
O542   O     0.13783   0.67373   0.30318   0.01267  Uiso   1.00
O543   O     0.12857   0.67276   0.23913   0.01267  Uiso   1.00
O544   O     0.08620   0.66893   0.25149   0.01267  Uiso   1.00
O545   O     0.04316   0.55773   0.25137   0.01267  Uiso   1.00
O546   O     0.06416   0.56810   0.30643   0.01267  Uiso   1.00
O547   O     0.10186   0.56948   0.00515   0.01267  Uiso   1.00
O548   O     0.13638   0.55899   0.30002   0.01267  Uiso   1.00
O549   O     0.12868   0.56309   0.23597   0.01267  Uiso   1.00
O550   O     0.08665   0.56312   0.25119   0.01267  Uiso   1.00
O551   O     0.06154   0.61605   0.26161   0.01267  Uiso   1.00
O552   O     0.13892   0.61713   0.27032   0.01267  Uiso   1.00
O553   O     0.02478   0.70637   0.19558   0.01267  Uiso   1.00
O554   O     0.02934   0.64097   0.19076   0.01267  Uiso   1.00
O555   O     0.03494   0.57547   0.18942   0.01267  Uiso   1.00
O556   O     0.10121   0.70733   0.20357   0.01267  Uiso   1.00
O557   O     0.10281   0.64119   0.19760   0.01267  Uiso   1.00
O558   O     0.09929   0.57614   0.18936   0.01267  Uiso   1.00
O559   O     0.16889   0.66442   0.25938   0.01267  Uiso   1.00
O560   O     0.16878   0.57061   0.25789   0.01267  Uiso   1.00
O561   O     0.14397   0.76772   0.04591   0.01267  Uiso   1.00
O562   O     0.06436   0.76626   0.04797   0.01267  Uiso   1.00
O563   O     0.09479   0.76600   0.17667   0.01267  Uiso   1.00
O564   O     0.03596   0.76833   0.18339   0.01267  Uiso   1.00
O565   O     0.02221   0.51707   0.21143   0.01267  Uiso   1.00
O566   O     0.10279   0.51576   0.21245   0.01267  Uiso   1.00
O567   O     0.07453   0.51841   0.01340   0.01267  Uiso   1.00
O568   O     0.12889   0.51882   0.01681   0.01267  Uiso   1.00
O569   O     0.18990   0.51826   0.28247   0.01267  Uiso   1.00
O570   O     0.26689   0.51810   0.27649   0.01267  Uiso   1.00
O571   O     0.24137   0.51753   0.14285   0.01267  Uiso   1.00
O572   O     0.29622   0.51804   0.14272   0.01267  Uiso   1.00
O573   O     0.30982   0.76781   0.11494   0.01267  Uiso   1.00
O574   O     0.23126   0.76858   0.11101   0.01267  Uiso   1.00
O575   O     0.25738   0.76754   0.30898   0.01267  Uiso   1.00
O576   O     0.20281   0.76784   0.31053   0.01267  Uiso   1.00
H577   H     0.12022   0.81610   0.20975   0.01267  Uiso   1.00
H578   H     0.17744   0.76431   0.13009   0.01267  Uiso   1.00
H579   H     0.15344   0.81753   0.14279   0.01267  Uiso   1.00
H580   H     0.18900   0.73341   0.18476   0.01267  Uiso   1.00
H581   H     0.17343   0.76396   0.23747   0.01267  Uiso   1.00
C582   C     0.17891   0.75567   0.18412   0.01267  Uiso   1.00
C583   C     0.17106   0.77085   0.21189   0.01267  Uiso   1.00
C584   C     0.17278   0.77245   0.15462   0.01267  Uiso   1.00
C585   C     0.16046   0.80027   0.16037   0.01267  Uiso   1.00
S586   S     0.15682   0.80629   0.20186   0.01267  Uiso   1.00
Si587  Si    0.47429   0.42298   0.04862   0.01267  Uiso   1.00
Si588  Si    0.43616   0.40810   0.09695   0.01267  Uiso   1.00
Si589  Si    0.42594   0.42159   0.17067   0.01267  Uiso   1.00
Si590  Si    0.37356   0.42434   0.17042   0.01267  Uiso   1.00
Si591  Si    0.35588   0.40720   0.09963   0.01267  Uiso   1.00
Si592  Si    0.39492   0.42442   0.05495   0.01267  Uiso   1.00
Si593  Si    0.47414   0.30650   0.05532   0.01267  Uiso   1.00
Si594  Si    0.43554   0.32979   0.10059   0.01267  Uiso   1.00
Si595  Si    0.37173   0.30747   0.17370   0.01267  Uiso   1.00
Si596  Si    0.35590   0.32808   0.10138   0.01267  Uiso   1.00
Si597  Si    0.39490   0.30484   0.05844   0.01267  Uiso   1.00
Si598  Si    0.35836   0.36400   0.21789   0.01267  Uiso   1.00
Si599  Si    0.39568   0.37694   0.26843   0.01267  Uiso   1.00
Si600  Si    0.40600   0.36181   0.00870   0.01267  Uiso   1.00
Si601  Si    0.45873   0.36046   0.00533   0.01267  Uiso   1.00
Si602  Si    0.47625   0.38055   0.26955   0.01267  Uiso   1.00
Si603  Si    0.43703   0.36499   0.22372   0.01267  Uiso   1.00
Si604  Si    0.35848   0.47821   0.22083   0.01267  Uiso   1.00
Si605  Si    0.39739   0.45703   0.26726   0.01267  Uiso   1.00
Si606  Si    0.40982   0.47913   0.00589   0.01267  Uiso   1.00
Si607  Si    0.46073   0.48090   0.00363   0.01267  Uiso   1.00
Si608  Si    0.47729   0.45876   0.26770   0.01267  Uiso   1.00
Si609  Si    0.43829   0.47672   0.22139   0.01267  Uiso   1.00
Si610  Si    0.52545   0.17141   0.27739   0.01267  Uiso   1.00
Si611  Si    0.56423   0.15709   0.22797   0.01267  Uiso   1.00
Si612  Si    0.57257   0.17508   0.15508   0.01267  Uiso   1.00
Si613  Si    0.62513   0.17518   0.15602   0.01267  Uiso   1.00
Si614  Si    0.64187   0.15709   0.22669   0.01267  Uiso   1.00
Si615  Si    0.60483   0.17015   0.27593   0.01267  Uiso   1.00
Si616  Si    0.52514   0.05719   0.27291   0.01267  Uiso   1.00
Si617  Si    0.56418   0.07839   0.22518   0.01267  Uiso   1.00
Si618  Si    0.57639   0.05615   0.15367   0.01267  Uiso   1.00
Si619  Si    0.62748   0.05614   0.15533   0.01267  Uiso   1.00
Si620  Si    0.64367   0.07794   0.22596   0.01267  Uiso   1.00
Si621  Si    0.60468   0.05734   0.27043   0.01267  Uiso   1.00
Si622  Si    0.64115   0.11488   0.11116   0.01267  Uiso   1.00
Si623  Si    0.60164   0.12873   0.06265   0.01267  Uiso   1.00
Si624  Si    0.59323   0.11020   0.32273   0.01267  Uiso   1.00
Si625  Si    0.54042   0.11072   0.32300   0.01267  Uiso   1.00
Si626  Si    0.52368   0.12868   0.06051   0.01267  Uiso   1.00
Si627  Si    0.56045   0.11468   0.10999   0.01267  Uiso   1.00
Si628  Si    0.64041   0.22884   0.10626   0.01267  Uiso   1.00
Si629  Si    0.60175   0.20814   0.05803   0.01267  Uiso   1.00
Si630  Si    0.58915   0.22881   0.31969   0.01267  Uiso   1.00
Si631  Si    0.53803   0.22946   0.32235   0.01267  Uiso   1.00
Si632  Si    0.52187   0.20759   0.05991   0.01267  Uiso   1.00
Si633  Si    0.56118   0.22952   0.10315   0.01267  Uiso   1.00
Si634  Si    0.52473   0.36398   0.27775   0.01267  Uiso   1.00
Si635  Si    0.56314   0.37890   0.22837   0.01267  Uiso   1.00
Si636  Si    0.57279   0.36228   0.15525   0.01267  Uiso   1.00
Si637  Si    0.62540   0.36100   0.15528   0.01267  Uiso   1.00
Si638  Si    0.64221   0.37918   0.22554   0.01267  Uiso   1.00
Si639  Si    0.60478   0.36436   0.27383   0.01267  Uiso   1.00
Si640  Si    0.52600   0.47989   0.27154   0.01267  Uiso   1.00
Si641  Si    0.56352   0.45812   0.22348   0.01267  Uiso   1.00
Si642  Si    0.57673   0.47839   0.15155   0.01267  Uiso   1.00
Si643  Si    0.62779   0.47968   0.15467   0.01267  Uiso   1.00
Si644  Si    0.64315   0.45764   0.22544   0.01267  Uiso   1.00
Si645  Si    0.60394   0.47903   0.26873   0.01267  Uiso   1.00
Si646  Si    0.64067   0.42148   0.10966   0.01267  Uiso   1.00
Si647  Si    0.60211   0.40665   0.06041   0.01267  Uiso   1.00
Si648  Si    0.59328   0.42401   0.32075   0.01267  Uiso   1.00
Si649  Si    0.54069   0.42485   0.32180   0.01267  Uiso   1.00
Si650  Si    0.56116   0.42099   0.10683   0.01267  Uiso   1.00
Si651  Si    0.64025   0.30653   0.10522   0.01267  Uiso   1.00
Si652  Si    0.60254   0.32747   0.05682   0.01267  Uiso   1.00
Si653  Si    0.58920   0.30655   0.31846   0.01267  Uiso   1.00
Si654  Si    0.53821   0.30616   0.32235   0.01267  Uiso   1.00
Si655  Si    0.56205   0.30786   0.10329   0.01267  Uiso   1.00
Si656  Si    0.47393   0.11342   0.05037   0.01267  Uiso   1.00
Si657  Si    0.43674   0.12614   0.09975   0.01267  Uiso   1.00
Si658  Si    0.42668   0.11230   0.17396   0.01267  Uiso   1.00
Si659  Si    0.37412   0.11041   0.17146   0.01267  Uiso   1.00
Si660  Si    0.35690   0.12842   0.10149   0.01267  Uiso   1.00
Si661  Si    0.39571   0.11249   0.05551   0.01267  Uiso   1.00
Si662  Si    0.47340   0.22907   0.05538   0.01267  Uiso   1.00
Si663  Si    0.43520   0.20511   0.10060   0.01267  Uiso   1.00
Si664  Si    0.42361   0.22722   0.17287   0.01267  Uiso   1.00
Si665  Si    0.37209   0.23032   0.17116   0.01267  Uiso   1.00
Si666  Si    0.35580   0.20724   0.10115   0.01267  Uiso   1.00
Si667  Si    0.39456   0.22713   0.05596   0.01267  Uiso   1.00
Si668  Si    0.35806   0.17162   0.21572   0.01267  Uiso   1.00
Si669  Si    0.39614   0.15617   0.26544   0.01267  Uiso   1.00
Si670  Si    0.40637   0.17253   0.00524   0.01267  Uiso   1.00
Si671  Si    0.45874   0.17523   0.00493   0.01267  Uiso   1.00
Si672  Si    0.47672   0.15682   0.26801   0.01267  Uiso   1.00
Si673  Si    0.43774   0.17253   0.22252   0.01267  Uiso   1.00
Si674  Si    0.35903   0.05568   0.22140   0.01267  Uiso   1.00
Si675  Si    0.39733   0.07646   0.26755   0.01267  Uiso   1.00
Si676  Si    0.40960   0.05798   0.00709   0.01267  Uiso   1.00
Si677  Si    0.46055   0.05698   0.00403   0.01267  Uiso   1.00
Si678  Si    0.47650   0.07764   0.26615   0.01267  Uiso   1.00
Si679  Si    0.43762   0.05476   0.22232   0.01267  Uiso   1.00
Si680  Si    0.52350   0.40816   0.05897   0.01267  Uiso   1.00
Si681  Si    0.52257   0.32902   0.05964   0.01267  Uiso   1.00
Al682  Al    0.42333   0.30751   0.17189   0.01267  Uiso   1.00
O683   O     0.45607   0.42634   0.07748   0.01267  Uiso   1.00
O684   O     0.43846   0.41609   0.13599   0.01267  Uiso   1.00
O685   O     0.39984   0.42387   0.16494   0.01267  Uiso   1.00
O686   O     0.36148   0.42325   0.13519   0.01267  Uiso   1.00
O687   O     0.37064   0.42396   0.07094   0.01267  Uiso   1.00
O688   O     0.41288   0.42280   0.08436   0.01267  Uiso   1.00
O689   O     0.45600   0.31005   0.08395   0.01267  Uiso   1.00
O690   O     0.43660   0.32633   0.13957   0.01267  Uiso   1.00
O691   O     0.39662   0.32007   0.17664   0.01267  Uiso   1.00
O692   O     0.36206   0.31240   0.13669   0.01267  Uiso   1.00
O693   O     0.37032   0.31059   0.07264   0.01267  Uiso   1.00
O694   O     0.41259   0.31450   0.08662   0.01267  Uiso   1.00
O695   O     0.43735   0.36866   0.08914   0.01267  Uiso   1.00
O696   O     0.36076   0.36770   0.10106   0.01267  Uiso   1.00
O697   O     0.47521   0.45711   0.02726   0.01267  Uiso   1.00
O698   O     0.46900   0.39215   0.02426   0.01267  Uiso   1.00
O699   O     0.46652   0.32606   0.02226   0.01267  Uiso   1.00
O700   O     0.39760   0.45904   0.03503   0.01267  Uiso   1.00
O701   O     0.39778   0.39316   0.03027   0.01267  Uiso   1.00
O702   O     0.39869   0.32720   0.02565   0.01267  Uiso   1.00
O703   O     0.66378   0.41518   0.09099   0.01267  Uiso   1.00
O704   O     0.66348   0.32198   0.09332   0.01267  Uiso   1.00
O705   O     0.37544   0.36110   0.24839   0.01267  Uiso   1.00
O706   O     0.39481   0.36377   0.30590   0.01267  Uiso   1.00
O707   O     0.43237   0.36327   0.00482   0.01267  Uiso   1.00
O708   O     0.46771   0.35975   0.30106   0.01267  Uiso   1.00
O709   O     0.46132   0.37139   0.23761   0.01267  Uiso   1.00
O710   O     0.41883   0.36454   0.25220   0.01267  Uiso   1.00
O711   O     0.37667   0.47433   0.24956   0.01267  Uiso   1.00
O712   O     0.39813   0.47056   0.30455   0.01267  Uiso   1.00
O713   O     0.43545   0.46790   0.00407   0.01267  Uiso   1.00
O714   O     0.47009   0.48032   0.29956   0.01267  Uiso   1.00
O715   O     0.46247   0.46877   0.23615   0.01267  Uiso   1.00
O716   O     0.42009   0.46633   0.24865   0.01267  Uiso   1.00
O717   O     0.39460   0.41705   0.26675   0.01267  Uiso   1.00
O718   O     0.47393   0.41983   0.27699   0.01267  Uiso   1.00
O719   O     0.35638   0.32877   0.19900   0.01267  Uiso   1.00
O720   O     0.36647   0.39284   0.19271   0.01267  Uiso   1.00
O721   O     0.36651   0.45881   0.18803   0.01267  Uiso   1.00
O722   O     0.43869   0.32613   0.20771   0.01267  Uiso   1.00
O723   O     0.43097   0.38971   0.19429   0.01267  Uiso   1.00
O724   O     0.43494   0.45522   0.18797   0.01267  Uiso   1.00
O725   O     0.50114   0.37018   0.26030   0.01267  Uiso   1.00
O726   O     0.50271   0.46554   0.25836   0.01267  Uiso   1.00
O727   O     0.54427   0.17230   0.24937   0.01267  Uiso   1.00
O728   O     0.56537   0.17728   0.19343   0.01267  Uiso   1.00
O729   O     0.59889   0.17091   0.15160   0.01267  Uiso   1.00
O730   O     0.63169   0.17555   0.19455   0.01267  Uiso   1.00
O731   O     0.62896   0.16945   0.25936   0.01267  Uiso   1.00
O732   O     0.58701   0.16160   0.24765   0.01267  Uiso   1.00
O733   O     0.54408   0.06225   0.24550   0.01267  Uiso   1.00
O734   O     0.56496   0.06082   0.18941   0.01267  Uiso   1.00
O735   O     0.60191   0.06783   0.15554   0.01267  Uiso   1.00
O736   O     0.63719   0.05878   0.19227   0.01267  Uiso   1.00
O737   O     0.62928   0.06297   0.25619   0.01267  Uiso   1.00
O738   O     0.58722   0.07226   0.24410   0.01267  Uiso   1.00
O739   O     0.56013   0.11794   0.22087   0.01267  Uiso   1.00
O740   O     0.63887   0.11729   0.22179   0.01267  Uiso   1.00
O741   O     0.52471   0.20719   0.29583   0.01267  Uiso   1.00
O742   O     0.53004   0.14287   0.30472   0.01267  Uiso   1.00
O743   O     0.53109   0.07699   0.30646   0.01267  Uiso   1.00
O744   O     0.60052   0.20684   0.29104   0.01267  Uiso   1.00
O745   O     0.60370   0.14279   0.30524   0.01267  Uiso   1.00
O746   O     0.60208   0.07642   0.30540   0.01267  Uiso   1.00
O747   O     0.33402   0.16662   0.23194   0.01267  Uiso   1.00
O748   O     0.33605   0.07178   0.23386   0.01267  Uiso   1.00
O749   O     0.62229   0.11452   0.08319   0.01267  Uiso   1.00
O750   O     0.60047   0.10944   0.02770   0.01267  Uiso   1.00
O751   O     0.56678   0.11205   0.31929   0.01267  Uiso   1.00
O752   O     0.53334   0.11054   0.02796   0.01267  Uiso   1.00
O753   O     0.53658   0.11510   0.09261   0.01267  Uiso   1.00
O754   O     0.57910   0.12219   0.08262   0.01267  Uiso   1.00
O755   O     0.62203   0.22435   0.07783   0.01267  Uiso   1.00
O756   O     0.60170   0.22320   0.02107   0.01267  Uiso   1.00
O757   O     0.56356   0.21773   0.32358   0.01267  Uiso   1.00
O758   O     0.52742   0.22596   0.02536   0.01267  Uiso   1.00
O759   O     0.53647   0.22364   0.08935   0.01267  Uiso   1.00
O760   O     0.57859   0.21721   0.07556   0.01267  Uiso   1.00
O761   O     0.60465   0.16822   0.05654   0.01267  Uiso   1.00
O762   O     0.52739   0.16841   0.05651   0.01267  Uiso   1.00
O763   O     0.64127   0.07955   0.13042   0.01267  Uiso   1.00
O764   O     0.63721   0.14447   0.13767   0.01267  Uiso   1.00
O765   O     0.63282   0.21009   0.13983   0.01267  Uiso   1.00
O766   O     0.56390   0.07831   0.12628   0.01267  Uiso   1.00
O767   O     0.56099   0.14295   0.13846   0.01267  Uiso   1.00
O768   O     0.56459   0.20906   0.13720   0.01267  Uiso   1.00
O769   O     0.49797   0.12040   0.06566   0.01267  Uiso   1.00
O770   O     0.49622   0.21303   0.06885   0.01267  Uiso   1.00
O771   O     0.54349   0.36250   0.24972   0.01267  Uiso   1.00
O772   O     0.56331   0.36150   0.19248   0.01267  Uiso   1.00
O773   O     0.59916   0.36684   0.15557   0.01267  Uiso   1.00
O774   O     0.63481   0.35966   0.19244   0.01267  Uiso   1.00
O775   O     0.62871   0.36465   0.25672   0.01267  Uiso   1.00
O776   O     0.58645   0.37251   0.24616   0.01267  Uiso   1.00
O777   O     0.54377   0.47738   0.24201   0.01267  Uiso   1.00
O778   O     0.56390   0.47023   0.18556   0.01267  Uiso   1.00
O779   O     0.60231   0.46765   0.15539   0.01267  Uiso   1.00
O780   O     0.63783   0.47701   0.19141   0.01267  Uiso   1.00
O781   O     0.62869   0.47305   0.25532   0.01267  Uiso   1.00
O782   O     0.58686   0.46671   0.24059   0.01267  Uiso   1.00
O783   O     0.55893   0.41853   0.22529   0.01267  Uiso   1.00
O784   O     0.63725   0.41861   0.22092   0.01267  Uiso   1.00
O785   O     0.52394   0.32874   0.29719   0.01267  Uiso   1.00
O786   O     0.52888   0.39364   0.30396   0.01267  Uiso   1.00
O787   O     0.53414   0.45919   0.30354   0.01267  Uiso   1.00
O788   O     0.60079   0.32780   0.28946   0.01267  Uiso   1.00
O789   O     0.60426   0.39228   0.30261   0.01267  Uiso   1.00
O790   O     0.60008   0.45840   0.30258   0.01267  Uiso   1.00
O791   O     0.33463   0.37364   0.23292   0.01267  Uiso   1.00
O792   O     0.33553   0.46271   0.23428   0.01267  Uiso   1.00
O793   O     0.62130   0.42292   0.08254   0.01267  Uiso   1.00
O794   O     0.60194   0.42535   0.02506   0.01267  Uiso   1.00
O795   O     0.56690   0.41942   0.32001   0.01267  Uiso   1.00
O796   O     0.53247   0.42698   0.02624   0.01267  Uiso   1.00
O797   O     0.53685   0.42098   0.09093   0.01267  Uiso   1.00
O798   O     0.57857   0.41171   0.07814   0.01267  Uiso   1.00
O799   O     0.62285   0.30971   0.07524   0.01267  Uiso   1.00
O800   O     0.60152   0.31298   0.01978   0.01267  Uiso   1.00
O801   O     0.56367   0.31815   0.32155   0.01267  Uiso   1.00
O802   O     0.52881   0.30933   0.02613   0.01267  Uiso   1.00
O803   O     0.53754   0.31556   0.08980   0.01267  Uiso   1.00
O804   O     0.57960   0.31945   0.07548   0.01267  Uiso   1.00
O805   O     0.60654   0.36725   0.05572   0.01267  Uiso   1.00
O806   O     0.52670   0.36840   0.05405   0.01267  Uiso   1.00
O807   O     0.64145   0.45664   0.12923   0.01267  Uiso   1.00
O808   O     0.63680   0.39163   0.13587   0.01267  Uiso   1.00
O809   O     0.63112   0.32611   0.13740   0.01267  Uiso   1.00
O810   O     0.56593   0.45769   0.12154   0.01267  Uiso   1.00
O811   O     0.56206   0.39368   0.13615   0.01267  Uiso   1.00
O812   O     0.56620   0.32769   0.13740   0.01267  Uiso   1.00
O813   O     0.49801   0.41712   0.06540   0.01267  Uiso   1.00
O814   O     0.49714   0.32183   0.06891   0.01267  Uiso   1.00
O815   O     0.45653   0.10780   0.08008   0.01267  Uiso   1.00
O816   O     0.43811   0.11555   0.13811   0.01267  Uiso   1.00
O817   O     0.40035   0.11618   0.17073   0.01267  Uiso   1.00
O818   O     0.36470   0.10868   0.13429   0.01267  Uiso   1.00
O819   O     0.37112   0.11619   0.07007   0.01267  Uiso   1.00
O820   O     0.41311   0.11441   0.08563   0.01267  Uiso   1.00
O821   O     0.45507   0.22612   0.08404   0.01267  Uiso   1.00
O822   O     0.43459   0.21253   0.13938   0.01267  Uiso   1.00
O823   O     0.39747   0.21837   0.17183   0.01267  Uiso   1.00
O824   O     0.36264   0.22763   0.13387   0.01267  Uiso   1.00
O825   O     0.37000   0.22007   0.06980   0.01267  Uiso   1.00
O826   O     0.41203   0.21522   0.08373   0.01267  Uiso   1.00
O827   O     0.43968   0.16584   0.09455   0.01267  Uiso   1.00
O828   O     0.36026   0.16797   0.10734   0.01267  Uiso   1.00
O829   O     0.47525   0.08009   0.02798   0.01267  Uiso   1.00
O830   O     0.46651   0.14443   0.02762   0.01267  Uiso   1.00
O831   O     0.46531   0.21005   0.02233   0.01267  Uiso   1.00
O832   O     0.39764   0.07670   0.03740   0.01267  Uiso   1.00
O833   O     0.40049   0.14181   0.02930   0.01267  Uiso   1.00
O834   O     0.39828   0.20712   0.02171   0.01267  Uiso   1.00
O835   O     0.66474   0.12014   0.09361   0.01267  Uiso   1.00
O836   O     0.66338   0.21347   0.09297   0.01267  Uiso   1.00
O837   O     0.37614   0.17260   0.24493   0.01267  Uiso   1.00
O838   O     0.39399   0.16730   0.30366   0.01267  Uiso   1.00
O839   O     0.43259   0.17347   0.33245   0.01267  Uiso   1.00
O840   O     0.47116   0.17373   0.30318   0.01267  Uiso   1.00
O841   O     0.46190   0.17276   0.23913   0.01267  Uiso   1.00
O842   O     0.41953   0.16893   0.25149   0.01267  Uiso   1.00
O843   O     0.37650   0.05773   0.25137   0.01267  Uiso   1.00
O844   O     0.39750   0.06810   0.30643   0.01267  Uiso   1.00
O845   O     0.43519   0.06948   0.00515   0.01267  Uiso   1.00
O846   O     0.46971   0.05899   0.30002   0.01267  Uiso   1.00
O847   O     0.46202   0.06309   0.23597   0.01267  Uiso   1.00
O848   O     0.41998   0.06312   0.25119   0.01267  Uiso   1.00
O849   O     0.39487   0.11605   0.26161   0.01267  Uiso   1.00
O850   O     0.47226   0.11713   0.27032   0.01267  Uiso   1.00
O851   O     0.35811   0.20637   0.19558   0.01267  Uiso   1.00
O852   O     0.36267   0.14097   0.19076   0.01267  Uiso   1.00
O853   O     0.36827   0.07547   0.18942   0.01267  Uiso   1.00
O854   O     0.43454   0.20733   0.20357   0.01267  Uiso   1.00
O855   O     0.43614   0.14119   0.19760   0.01267  Uiso   1.00
O856   O     0.43262   0.07614   0.18936   0.01267  Uiso   1.00
O857   O     0.50223   0.16442   0.25938   0.01267  Uiso   1.00
O858   O     0.50211   0.07061   0.25789   0.01267  Uiso   1.00
O859   O     0.47730   0.26772   0.04591   0.01267  Uiso   1.00
O860   O     0.39769   0.26626   0.04797   0.01267  Uiso   1.00
O861   O     0.42812   0.26600   0.17667   0.01267  Uiso   1.00
O862   O     0.36929   0.26833   0.18339   0.01267  Uiso   1.00
O863   O     0.35554   0.01707   0.21143   0.01267  Uiso   1.00
O864   O     0.43612   0.01576   0.21245   0.01267  Uiso   1.00
O865   O     0.40786   0.01841   0.01340   0.01267  Uiso   1.00
O866   O     0.46223   0.01883   0.01681   0.01267  Uiso   1.00
O867   O     0.52323   0.01826   0.28247   0.01267  Uiso   1.00
O868   O     0.60022   0.01810   0.27649   0.01267  Uiso   1.00
O869   O     0.57471   0.01753   0.14285   0.01267  Uiso   1.00
O870   O     0.62956   0.01804   0.14272   0.01267  Uiso   1.00
O871   O     0.64315   0.26781   0.11494   0.01267  Uiso   1.00
O872   O     0.56460   0.26858   0.11101   0.01267  Uiso   1.00
O873   O     0.59071   0.26754   0.30898   0.01267  Uiso   1.00
O874   O     0.53614   0.26784   0.31053   0.01267  Uiso   1.00
Si875  Si    0.47429   0.92298   0.04862   0.01267  Uiso   1.00
Si876  Si    0.43616   0.90810   0.09695   0.01267  Uiso   1.00
Si877  Si    0.42594   0.92159   0.17067   0.01267  Uiso   1.00
Si878  Si    0.37356   0.92434   0.17042   0.01267  Uiso   1.00
Si879  Si    0.35588   0.90720   0.09963   0.01267  Uiso   1.00
Si880  Si    0.39492   0.92442   0.05495   0.01267  Uiso   1.00
Si881  Si    0.47414   0.80650   0.05532   0.01267  Uiso   1.00
Si882  Si    0.43554   0.82979   0.10059   0.01267  Uiso   1.00
Si883  Si    0.37173   0.80747   0.17370   0.01267  Uiso   1.00
Si884  Si    0.35590   0.82808   0.10138   0.01267  Uiso   1.00
Si885  Si    0.39490   0.80484   0.05844   0.01267  Uiso   1.00
Si886  Si    0.35836   0.86400   0.21789   0.01267  Uiso   1.00
Si887  Si    0.39568   0.87694   0.26843   0.01267  Uiso   1.00
Si888  Si    0.40600   0.86181   0.00870   0.01267  Uiso   1.00
Si889  Si    0.45873   0.86046   0.00533   0.01267  Uiso   1.00
Si890  Si    0.47625   0.88055   0.26955   0.01267  Uiso   1.00
Si891  Si    0.43703   0.86499   0.22372   0.01267  Uiso   1.00
Si892  Si    0.35848   0.97821   0.22083   0.01267  Uiso   1.00
Si893  Si    0.39739   0.95703   0.26726   0.01267  Uiso   1.00
Si894  Si    0.40982   0.97913   0.00589   0.01267  Uiso   1.00
Si895  Si    0.46073   0.98090   0.00363   0.01267  Uiso   1.00
Si896  Si    0.47729   0.95876   0.26770   0.01267  Uiso   1.00
Si897  Si    0.43829   0.97672   0.22139   0.01267  Uiso   1.00
Si898  Si    0.52545   0.67141   0.27739   0.01267  Uiso   1.00
Si899  Si    0.56423   0.65709   0.22797   0.01267  Uiso   1.00
Si900  Si    0.57257   0.67508   0.15508   0.01267  Uiso   1.00
Si901  Si    0.62513   0.67518   0.15602   0.01267  Uiso   1.00
Si902  Si    0.64187   0.65709   0.22669   0.01267  Uiso   1.00
Si903  Si    0.60483   0.67015   0.27593   0.01267  Uiso   1.00
Si904  Si    0.52514   0.55719   0.27291   0.01267  Uiso   1.00
Si905  Si    0.56418   0.57839   0.22518   0.01267  Uiso   1.00
Si906  Si    0.57639   0.55615   0.15367   0.01267  Uiso   1.00
Si907  Si    0.62748   0.55614   0.15533   0.01267  Uiso   1.00
Si908  Si    0.64367   0.57794   0.22596   0.01267  Uiso   1.00
Si909  Si    0.60468   0.55734   0.27043   0.01267  Uiso   1.00
Si910  Si    0.64115   0.61488   0.11116   0.01267  Uiso   1.00
Si911  Si    0.60164   0.62873   0.06265   0.01267  Uiso   1.00
Si912  Si    0.59323   0.61020   0.32273   0.01267  Uiso   1.00
Si913  Si    0.54042   0.61072   0.32300   0.01267  Uiso   1.00
Si914  Si    0.52368   0.62868   0.06051   0.01267  Uiso   1.00
Si915  Si    0.56045   0.61468   0.10999   0.01267  Uiso   1.00
Si916  Si    0.64041   0.72884   0.10626   0.01267  Uiso   1.00
Si917  Si    0.60175   0.70814   0.05803   0.01267  Uiso   1.00
Si918  Si    0.58915   0.72881   0.31969   0.01267  Uiso   1.00
Si919  Si    0.53803   0.72946   0.32235   0.01267  Uiso   1.00
Si920  Si    0.52187   0.70759   0.05991   0.01267  Uiso   1.00
Si921  Si    0.56118   0.72952   0.10315   0.01267  Uiso   1.00
Si922  Si    0.52473   0.86398   0.27775   0.01267  Uiso   1.00
Si923  Si    0.56314   0.87890   0.22837   0.01267  Uiso   1.00
Si924  Si    0.57279   0.86228   0.15525   0.01267  Uiso   1.00
Si925  Si    0.62540   0.86100   0.15528   0.01267  Uiso   1.00
Si926  Si    0.64221   0.87918   0.22554   0.01267  Uiso   1.00
Si927  Si    0.60478   0.86436   0.27383   0.01267  Uiso   1.00
Si928  Si    0.52600   0.97989   0.27154   0.01267  Uiso   1.00
Si929  Si    0.56352   0.95812   0.22348   0.01267  Uiso   1.00
Si930  Si    0.57673   0.97839   0.15155   0.01267  Uiso   1.00
Si931  Si    0.62779   0.97968   0.15467   0.01267  Uiso   1.00
Si932  Si    0.64315   0.95764   0.22544   0.01267  Uiso   1.00
Si933  Si    0.60394   0.97903   0.26873   0.01267  Uiso   1.00
Si934  Si    0.64067   0.92148   0.10966   0.01267  Uiso   1.00
Si935  Si    0.60211   0.90665   0.06041   0.01267  Uiso   1.00
Si936  Si    0.59328   0.92401   0.32075   0.01267  Uiso   1.00
Si937  Si    0.54069   0.92485   0.32180   0.01267  Uiso   1.00
Si938  Si    0.56116   0.92099   0.10683   0.01267  Uiso   1.00
Si939  Si    0.64025   0.80653   0.10522   0.01267  Uiso   1.00
Si940  Si    0.60254   0.82747   0.05682   0.01267  Uiso   1.00
Si941  Si    0.58920   0.80655   0.31846   0.01267  Uiso   1.00
Si942  Si    0.53821   0.80616   0.32235   0.01267  Uiso   1.00
Si943  Si    0.56205   0.80786   0.10329   0.01267  Uiso   1.00
Si944  Si    0.47393   0.61342   0.05037   0.01267  Uiso   1.00
Si945  Si    0.43674   0.62614   0.09975   0.01267  Uiso   1.00
Si946  Si    0.42668   0.61230   0.17396   0.01267  Uiso   1.00
Si947  Si    0.37412   0.61041   0.17146   0.01267  Uiso   1.00
Si948  Si    0.35690   0.62842   0.10149   0.01267  Uiso   1.00
Si949  Si    0.39571   0.61249   0.05551   0.01267  Uiso   1.00
Si950  Si    0.47340   0.72907   0.05538   0.01267  Uiso   1.00
Si951  Si    0.43520   0.70511   0.10060   0.01267  Uiso   1.00
Si952  Si    0.42361   0.72722   0.17287   0.01267  Uiso   1.00
Si953  Si    0.37209   0.73032   0.17116   0.01267  Uiso   1.00
Si954  Si    0.35580   0.70724   0.10115   0.01267  Uiso   1.00
Si955  Si    0.39456   0.72713   0.05596   0.01267  Uiso   1.00
Si956  Si    0.35806   0.67162   0.21572   0.01267  Uiso   1.00
Si957  Si    0.39614   0.65617   0.26544   0.01267  Uiso   1.00
Si958  Si    0.40637   0.67253   0.00524   0.01267  Uiso   1.00
Si959  Si    0.45874   0.67523   0.00493   0.01267  Uiso   1.00
Si960  Si    0.47672   0.65682   0.26801   0.01267  Uiso   1.00
Si961  Si    0.43774   0.67253   0.22252   0.01267  Uiso   1.00
Si962  Si    0.35903   0.55568   0.22140   0.01267  Uiso   1.00
Si963  Si    0.39733   0.57646   0.26755   0.01267  Uiso   1.00
Si964  Si    0.40960   0.55798   0.00709   0.01267  Uiso   1.00
Si965  Si    0.46055   0.55698   0.00403   0.01267  Uiso   1.00
Si966  Si    0.47650   0.57764   0.26615   0.01267  Uiso   1.00
Si967  Si    0.43762   0.55476   0.22232   0.01267  Uiso   1.00
Si968  Si    0.52350   0.90816   0.05897   0.01267  Uiso   1.00
Si969  Si    0.52257   0.82902   0.05964   0.01267  Uiso   1.00
Al970  Al    0.42333   0.80751   0.17189   0.01267  Uiso   1.00
O971   O     0.45607   0.92634   0.07748   0.01267  Uiso   1.00
O972   O     0.43846   0.91609   0.13599   0.01267  Uiso   1.00
O973   O     0.39984   0.92387   0.16494   0.01267  Uiso   1.00
O974   O     0.36148   0.92325   0.13519   0.01267  Uiso   1.00
O975   O     0.37064   0.92396   0.07094   0.01267  Uiso   1.00
O976   O     0.41288   0.92280   0.08436   0.01267  Uiso   1.00
O977   O     0.45600   0.81005   0.08395   0.01267  Uiso   1.00
O978   O     0.43660   0.82633   0.13957   0.01267  Uiso   1.00
O979   O     0.39662   0.82007   0.17664   0.01267  Uiso   1.00
O980   O     0.36206   0.81240   0.13669   0.01267  Uiso   1.00
O981   O     0.37032   0.81059   0.07264   0.01267  Uiso   1.00
O982   O     0.41259   0.81450   0.08662   0.01267  Uiso   1.00
O983   O     0.43735   0.86866   0.08914   0.01267  Uiso   1.00
O984   O     0.36076   0.86770   0.10106   0.01267  Uiso   1.00
O985   O     0.47521   0.95711   0.02726   0.01267  Uiso   1.00
O986   O     0.46900   0.89215   0.02426   0.01267  Uiso   1.00
O987   O     0.46652   0.82606   0.02226   0.01267  Uiso   1.00
O988   O     0.39760   0.95904   0.03503   0.01267  Uiso   1.00
O989   O     0.39778   0.89316   0.03027   0.01267  Uiso   1.00
O990   O     0.39869   0.82720   0.02565   0.01267  Uiso   1.00
O991   O     0.66378   0.91518   0.09099   0.01267  Uiso   1.00
O992   O     0.66348   0.82198   0.09332   0.01267  Uiso   1.00
O993   O     0.37544   0.86110   0.24839   0.01267  Uiso   1.00
O994   O     0.39481   0.86377   0.30590   0.01267  Uiso   1.00
O995   O     0.43237   0.86327   0.00482   0.01267  Uiso   1.00
O996   O     0.46771   0.85975   0.30106   0.01267  Uiso   1.00
O997   O     0.46132   0.87139   0.23761   0.01267  Uiso   1.00
O998   O     0.41883   0.86454   0.25220   0.01267  Uiso   1.00
O999   O     0.37667   0.97433   0.24956   0.01267  Uiso   1.00
O1000  O     0.39813   0.97056   0.30455   0.01267  Uiso   1.00
O1001  O     0.43545   0.96790   0.00407   0.01267  Uiso   1.00
O1002  O     0.47009   0.98032   0.29956   0.01267  Uiso   1.00
O1003  O     0.46247   0.96877   0.23615   0.01267  Uiso   1.00
O1004  O     0.42009   0.96633   0.24865   0.01267  Uiso   1.00
O1005  O     0.39460   0.91705   0.26675   0.01267  Uiso   1.00
O1006  O     0.47393   0.91983   0.27699   0.01267  Uiso   1.00
O1007  O     0.35638   0.82877   0.19900   0.01267  Uiso   1.00
O1008  O     0.36647   0.89284   0.19271   0.01267  Uiso   1.00
O1009  O     0.36651   0.95881   0.18803   0.01267  Uiso   1.00
O1010  O     0.43869   0.82613   0.20771   0.01267  Uiso   1.00
O1011  O     0.43097   0.88971   0.19429   0.01267  Uiso   1.00
O1012  O     0.43494   0.95522   0.18797   0.01267  Uiso   1.00
O1013  O     0.50114   0.87018   0.26030   0.01267  Uiso   1.00
O1014  O     0.50271   0.96554   0.25836   0.01267  Uiso   1.00
O1015  O     0.54427   0.67230   0.24937   0.01267  Uiso   1.00
O1016  O     0.56537   0.67728   0.19343   0.01267  Uiso   1.00
O1017  O     0.59889   0.67091   0.15160   0.01267  Uiso   1.00
O1018  O     0.63169   0.67555   0.19455   0.01267  Uiso   1.00
O1019  O     0.62896   0.66945   0.25936   0.01267  Uiso   1.00
O1020  O     0.58701   0.66160   0.24765   0.01267  Uiso   1.00
O1021  O     0.54408   0.56225   0.24550   0.01267  Uiso   1.00
O1022  O     0.56496   0.56082   0.18941   0.01267  Uiso   1.00
O1023  O     0.60191   0.56783   0.15554   0.01267  Uiso   1.00
O1024  O     0.63719   0.55878   0.19227   0.01267  Uiso   1.00
O1025  O     0.62928   0.56297   0.25619   0.01267  Uiso   1.00
O1026  O     0.58722   0.57226   0.24410   0.01267  Uiso   1.00
O1027  O     0.56013   0.61794   0.22087   0.01267  Uiso   1.00
O1028  O     0.63887   0.61729   0.22179   0.01267  Uiso   1.00
O1029  O     0.52471   0.70719   0.29583   0.01267  Uiso   1.00
O1030  O     0.53004   0.64287   0.30472   0.01267  Uiso   1.00
O1031  O     0.53109   0.57699   0.30646   0.01267  Uiso   1.00
O1032  O     0.60052   0.70684   0.29104   0.01267  Uiso   1.00
O1033  O     0.60370   0.64279   0.30524   0.01267  Uiso   1.00
O1034  O     0.60208   0.57642   0.30540   0.01267  Uiso   1.00
O1035  O     0.33402   0.66662   0.23194   0.01267  Uiso   1.00
O1036  O     0.33605   0.57178   0.23386   0.01267  Uiso   1.00
O1037  O     0.62229   0.61452   0.08319   0.01267  Uiso   1.00
O1038  O     0.60047   0.60944   0.02770   0.01267  Uiso   1.00
O1039  O     0.56678   0.61205   0.31929   0.01267  Uiso   1.00
O1040  O     0.53334   0.61054   0.02796   0.01267  Uiso   1.00
O1041  O     0.53658   0.61510   0.09261   0.01267  Uiso   1.00
O1042  O     0.57910   0.62219   0.08262   0.01267  Uiso   1.00
O1043  O     0.62203   0.72435   0.07783   0.01267  Uiso   1.00
O1044  O     0.60170   0.72320   0.02107   0.01267  Uiso   1.00
O1045  O     0.56356   0.71773   0.32358   0.01267  Uiso   1.00
O1046  O     0.52742   0.72596   0.02536   0.01267  Uiso   1.00
O1047  O     0.53647   0.72364   0.08935   0.01267  Uiso   1.00
O1048  O     0.57859   0.71721   0.07556   0.01267  Uiso   1.00
O1049  O     0.60465   0.66822   0.05654   0.01267  Uiso   1.00
O1050  O     0.52739   0.66841   0.05651   0.01267  Uiso   1.00
O1051  O     0.64127   0.57955   0.13042   0.01267  Uiso   1.00
O1052  O     0.63721   0.64447   0.13767   0.01267  Uiso   1.00
O1053  O     0.63282   0.71009   0.13983   0.01267  Uiso   1.00
O1054  O     0.56390   0.57831   0.12628   0.01267  Uiso   1.00
O1055  O     0.56099   0.64295   0.13846   0.01267  Uiso   1.00
O1056  O     0.56459   0.70906   0.13720   0.01267  Uiso   1.00
O1057  O     0.49797   0.62040   0.06566   0.01267  Uiso   1.00
O1058  O     0.49622   0.71303   0.06885   0.01267  Uiso   1.00
O1059  O     0.54349   0.86250   0.24972   0.01267  Uiso   1.00
O1060  O     0.56331   0.86150   0.19248   0.01267  Uiso   1.00
O1061  O     0.59916   0.86684   0.15557   0.01267  Uiso   1.00
O1062  O     0.63481   0.85966   0.19244   0.01267  Uiso   1.00
O1063  O     0.62871   0.86465   0.25672   0.01267  Uiso   1.00
O1064  O     0.58645   0.87251   0.24616   0.01267  Uiso   1.00
O1065  O     0.54377   0.97738   0.24201   0.01267  Uiso   1.00
O1066  O     0.56390   0.97023   0.18556   0.01267  Uiso   1.00
O1067  O     0.60231   0.96765   0.15539   0.01267  Uiso   1.00
O1068  O     0.63783   0.97701   0.19141   0.01267  Uiso   1.00
O1069  O     0.62869   0.97304   0.25532   0.01267  Uiso   1.00
O1070  O     0.58686   0.96671   0.24059   0.01267  Uiso   1.00
O1071  O     0.55893   0.91853   0.22529   0.01267  Uiso   1.00
O1072  O     0.63725   0.91861   0.22092   0.01267  Uiso   1.00
O1073  O     0.52394   0.82874   0.29719   0.01267  Uiso   1.00
O1074  O     0.52888   0.89364   0.30396   0.01267  Uiso   1.00
O1075  O     0.53414   0.95919   0.30354   0.01267  Uiso   1.00
O1076  O     0.60079   0.82780   0.28946   0.01267  Uiso   1.00
O1077  O     0.60426   0.89228   0.30261   0.01267  Uiso   1.00
O1078  O     0.60008   0.95840   0.30258   0.01267  Uiso   1.00
O1079  O     0.33463   0.87364   0.23292   0.01267  Uiso   1.00
O1080  O     0.33553   0.96271   0.23428   0.01267  Uiso   1.00
O1081  O     0.62130   0.92292   0.08254   0.01267  Uiso   1.00
O1082  O     0.60194   0.92535   0.02506   0.01267  Uiso   1.00
O1083  O     0.56690   0.91942   0.32001   0.01267  Uiso   1.00
O1084  O     0.53247   0.92698   0.02624   0.01267  Uiso   1.00
O1085  O     0.53685   0.92098   0.09093   0.01267  Uiso   1.00
O1086  O     0.57857   0.91171   0.07814   0.01267  Uiso   1.00
O1087  O     0.62285   0.80971   0.07524   0.01267  Uiso   1.00
O1088  O     0.60152   0.81298   0.01978   0.01267  Uiso   1.00
O1089  O     0.56367   0.81815   0.32155   0.01267  Uiso   1.00
O1090  O     0.52881   0.80933   0.02613   0.01267  Uiso   1.00
O1091  O     0.53754   0.81556   0.08980   0.01267  Uiso   1.00
O1092  O     0.57960   0.81945   0.07548   0.01267  Uiso   1.00
O1093  O     0.60654   0.86725   0.05572   0.01267  Uiso   1.00
O1094  O     0.52670   0.86840   0.05405   0.01267  Uiso   1.00
O1095  O     0.64145   0.95664   0.12923   0.01267  Uiso   1.00
O1096  O     0.63680   0.89163   0.13587   0.01267  Uiso   1.00
O1097  O     0.63112   0.82611   0.13740   0.01267  Uiso   1.00
O1098  O     0.56593   0.95769   0.12154   0.01267  Uiso   1.00
O1099  O     0.56206   0.89368   0.13615   0.01267  Uiso   1.00
O1100  O     0.56620   0.82769   0.13740   0.01267  Uiso   1.00
O1101  O     0.49801   0.91712   0.06540   0.01267  Uiso   1.00
O1102  O     0.49714   0.82183   0.06891   0.01267  Uiso   1.00
O1103  O     0.45653   0.60780   0.08008   0.01267  Uiso   1.00
O1104  O     0.43811   0.61555   0.13811   0.01267  Uiso   1.00
O1105  O     0.40035   0.61618   0.17073   0.01267  Uiso   1.00
O1106  O     0.36470   0.60868   0.13429   0.01267  Uiso   1.00
O1107  O     0.37112   0.61619   0.07007   0.01267  Uiso   1.00
O1108  O     0.41311   0.61441   0.08563   0.01267  Uiso   1.00
O1109  O     0.45507   0.72612   0.08404   0.01267  Uiso   1.00
O1110  O     0.43459   0.71253   0.13938   0.01267  Uiso   1.00
O1111  O     0.39747   0.71837   0.17183   0.01267  Uiso   1.00
O1112  O     0.36264   0.72763   0.13387   0.01267  Uiso   1.00
O1113  O     0.37000   0.72007   0.06980   0.01267  Uiso   1.00
O1114  O     0.41203   0.71522   0.08373   0.01267  Uiso   1.00
O1115  O     0.43968   0.66584   0.09455   0.01267  Uiso   1.00
O1116  O     0.36026   0.66797   0.10734   0.01267  Uiso   1.00
O1117  O     0.47525   0.58009   0.02798   0.01267  Uiso   1.00
O1118  O     0.46651   0.64443   0.02762   0.01267  Uiso   1.00
O1119  O     0.46531   0.71005   0.02233   0.01267  Uiso   1.00
O1120  O     0.39764   0.57670   0.03740   0.01267  Uiso   1.00
O1121  O     0.40049   0.64181   0.02930   0.01267  Uiso   1.00
O1122  O     0.39828   0.70712   0.02171   0.01267  Uiso   1.00
O1123  O     0.66474   0.62014   0.09361   0.01267  Uiso   1.00
O1124  O     0.66338   0.71347   0.09297   0.01267  Uiso   1.00
O1125  O     0.37614   0.67260   0.24493   0.01267  Uiso   1.00
O1126  O     0.39399   0.66730   0.30366   0.01267  Uiso   1.00
O1127  O     0.43259   0.67347   0.33245   0.01267  Uiso   1.00
O1128  O     0.47116   0.67373   0.30318   0.01267  Uiso   1.00
O1129  O     0.46190   0.67276   0.23913   0.01267  Uiso   1.00
O1130  O     0.41953   0.66893   0.25149   0.01267  Uiso   1.00
O1131  O     0.37650   0.55773   0.25137   0.01267  Uiso   1.00
O1132  O     0.39750   0.56810   0.30643   0.01267  Uiso   1.00
O1133  O     0.43519   0.56948   0.00515   0.01267  Uiso   1.00
O1134  O     0.46971   0.55899   0.30002   0.01267  Uiso   1.00
O1135  O     0.46202   0.56309   0.23597   0.01267  Uiso   1.00
O1136  O     0.41998   0.56312   0.25119   0.01267  Uiso   1.00
O1137  O     0.39487   0.61605   0.26161   0.01267  Uiso   1.00
O1138  O     0.47226   0.61713   0.27032   0.01267  Uiso   1.00
O1139  O     0.35811   0.70637   0.19558   0.01267  Uiso   1.00
O1140  O     0.36267   0.64097   0.19076   0.01267  Uiso   1.00
O1141  O     0.36827   0.57547   0.18942   0.01267  Uiso   1.00
O1142  O     0.43454   0.70733   0.20357   0.01267  Uiso   1.00
O1143  O     0.43614   0.64119   0.19760   0.01267  Uiso   1.00
O1144  O     0.43262   0.57614   0.18936   0.01267  Uiso   1.00
O1145  O     0.50223   0.66442   0.25938   0.01267  Uiso   1.00
O1146  O     0.50211   0.57061   0.25789   0.01267  Uiso   1.00
O1147  O     0.47730   0.76772   0.04591   0.01267  Uiso   1.00
O1148  O     0.39769   0.76626   0.04797   0.01267  Uiso   1.00
O1149  O     0.42812   0.76600   0.17667   0.01267  Uiso   1.00
O1150  O     0.36929   0.76833   0.18339   0.01267  Uiso   1.00
O1151  O     0.35554   0.51707   0.21143   0.01267  Uiso   1.00
O1152  O     0.43612   0.51576   0.21245   0.01267  Uiso   1.00
O1153  O     0.40786   0.51841   0.01340   0.01267  Uiso   1.00
O1154  O     0.46223   0.51882   0.01681   0.01267  Uiso   1.00
O1155  O     0.52323   0.51826   0.28247   0.01267  Uiso   1.00
O1156  O     0.60022   0.51810   0.27649   0.01267  Uiso   1.00
O1157  O     0.57471   0.51753   0.14285   0.01267  Uiso   1.00
O1158  O     0.62956   0.51804   0.14272   0.01267  Uiso   1.00
O1159  O     0.64315   0.76781   0.11494   0.01267  Uiso   1.00
O1160  O     0.56460   0.76858   0.11101   0.01267  Uiso   1.00
O1161  O     0.59071   0.76754   0.30898   0.01267  Uiso   1.00
O1162  O     0.53614   0.76784   0.31053   0.01267  Uiso   1.00
H1163  H     0.45356   0.81610   0.20975   0.01267  Uiso   1.00
H1164  H     0.51077   0.76431   0.13009   0.01267  Uiso   1.00
H1165  H     0.48677   0.81753   0.14279   0.01267  Uiso   1.00
H1166  H     0.52234   0.73341   0.18476   0.01267  Uiso   1.00
H1167  H     0.50676   0.76396   0.23747   0.01267  Uiso   1.00
C1168  C     0.51224   0.75567   0.18412   0.01267  Uiso   1.00
C1169  C     0.50439   0.77085   0.21189   0.01267  Uiso   1.00
C1170  C     0.50611   0.77245   0.15462   0.01267  Uiso   1.00
C1171  C     0.49379   0.80027   0.16037   0.01267  Uiso   1.00
S1172  S     0.49015   0.80629   0.20186   0.01267  Uiso   1.00
Si1173 Si    0.80762   0.42298   0.04862   0.01267  Uiso   1.00
Si1174 Si    0.76949   0.40810   0.09695   0.01267  Uiso   1.00
Si1175 Si    0.75927   0.42159   0.17067   0.01267  Uiso   1.00
Si1176 Si    0.70690   0.42434   0.17042   0.01267  Uiso   1.00
Si1177 Si    0.68922   0.40720   0.09963   0.01267  Uiso   1.00
Si1178 Si    0.72825   0.42442   0.05495   0.01267  Uiso   1.00
Si1179 Si    0.80747   0.30650   0.05532   0.01267  Uiso   1.00
Si1180 Si    0.76888   0.32979   0.10059   0.01267  Uiso   1.00
Si1181 Si    0.70507   0.30747   0.17370   0.01267  Uiso   1.00
Si1182 Si    0.68923   0.32808   0.10138   0.01267  Uiso   1.00
Si1183 Si    0.72823   0.30484   0.05844   0.01267  Uiso   1.00
Si1184 Si    0.69169   0.36400   0.21789   0.01267  Uiso   1.00
Si1185 Si    0.72901   0.37694   0.26843   0.01267  Uiso   1.00
Si1186 Si    0.73934   0.36181   0.00870   0.01267  Uiso   1.00
Si1187 Si    0.79206   0.36046   0.00533   0.01267  Uiso   1.00
Si1188 Si    0.80959   0.38055   0.26955   0.01267  Uiso   1.00
Si1189 Si    0.77036   0.36499   0.22372   0.01267  Uiso   1.00
Si1190 Si    0.69182   0.47821   0.22083   0.01267  Uiso   1.00
Si1191 Si    0.73073   0.45703   0.26726   0.01267  Uiso   1.00
Si1192 Si    0.74315   0.47913   0.00589   0.01267  Uiso   1.00
Si1193 Si    0.79406   0.48090   0.00363   0.01267  Uiso   1.00
Si1194 Si    0.81062   0.45876   0.26770   0.01267  Uiso   1.00
Si1195 Si    0.77163   0.47672   0.22139   0.01267  Uiso   1.00
Si1196 Si    0.85878   0.17141   0.27739   0.01267  Uiso   1.00
Si1197 Si    0.89756   0.15709   0.22797   0.01267  Uiso   1.00
Si1198 Si    0.90590   0.17508   0.15508   0.01267  Uiso   1.00
Si1199 Si    0.95846   0.17518   0.15602   0.01267  Uiso   1.00
Si1200 Si    0.97520   0.15709   0.22669   0.01267  Uiso   1.00
Si1201 Si    0.93817   0.17015   0.27593   0.01267  Uiso   1.00
Si1202 Si    0.85847   0.05719   0.27291   0.01267  Uiso   1.00
Si1203 Si    0.89751   0.07839   0.22518   0.01267  Uiso   1.00
Si1204 Si    0.90972   0.05615   0.15367   0.01267  Uiso   1.00
Si1205 Si    0.96081   0.05614   0.15533   0.01267  Uiso   1.00
Si1206 Si    0.97700   0.07794   0.22596   0.01267  Uiso   1.00
Si1207 Si    0.93802   0.05734   0.27043   0.01267  Uiso   1.00
Si1208 Si    0.97448   0.11488   0.11116   0.01267  Uiso   1.00
Si1209 Si    0.93497   0.12873   0.06265   0.01267  Uiso   1.00
Si1210 Si    0.92656   0.11020   0.32273   0.01267  Uiso   1.00
Si1211 Si    0.87376   0.11072   0.32300   0.01267  Uiso   1.00
Si1212 Si    0.85701   0.12868   0.06051   0.01267  Uiso   1.00
Si1213 Si    0.89378   0.11468   0.10999   0.01267  Uiso   1.00
Si1214 Si    0.97375   0.22884   0.10626   0.01267  Uiso   1.00
Si1215 Si    0.93508   0.20814   0.05803   0.01267  Uiso   1.00
Si1216 Si    0.92248   0.22881   0.31969   0.01267  Uiso   1.00
Si1217 Si    0.87137   0.22946   0.32235   0.01267  Uiso   1.00
Si1218 Si    0.85521   0.20759   0.05991   0.01267  Uiso   1.00
Si1219 Si    0.89452   0.22952   0.10315   0.01267  Uiso   1.00
Si1220 Si    0.85806   0.36398   0.27775   0.01267  Uiso   1.00
Si1221 Si    0.89647   0.37890   0.22837   0.01267  Uiso   1.00
Si1222 Si    0.90612   0.36228   0.15525   0.01267  Uiso   1.00
Si1223 Si    0.95874   0.36100   0.15528   0.01267  Uiso   1.00
Si1224 Si    0.97555   0.37918   0.22554   0.01267  Uiso   1.00
Si1225 Si    0.93811   0.36436   0.27383   0.01267  Uiso   1.00
Si1226 Si    0.85934   0.47989   0.27154   0.01267  Uiso   1.00
Si1227 Si    0.89685   0.45812   0.22348   0.01267  Uiso   1.00
Si1228 Si    0.91006   0.47839   0.15155   0.01267  Uiso   1.00
Si1229 Si    0.96112   0.47968   0.15467   0.01267  Uiso   1.00
Si1230 Si    0.97649   0.45764   0.22544   0.01267  Uiso   1.00
Si1231 Si    0.93727   0.47903   0.26873   0.01267  Uiso   1.00
Si1232 Si    0.97400   0.42148   0.10966   0.01267  Uiso   1.00
Si1233 Si    0.93544   0.40665   0.06041   0.01267  Uiso   1.00
Si1234 Si    0.92662   0.42401   0.32075   0.01267  Uiso   1.00
Si1235 Si    0.87403   0.42485   0.32180   0.01267  Uiso   1.00
Si1236 Si    0.89449   0.42099   0.10683   0.01267  Uiso   1.00
Si1237 Si    0.97359   0.30653   0.10522   0.01267  Uiso   1.00
Si1238 Si    0.93587   0.32747   0.05682   0.01267  Uiso   1.00
Si1239 Si    0.92253   0.30655   0.31846   0.01267  Uiso   1.00
Si1240 Si    0.87154   0.30616   0.32235   0.01267  Uiso   1.00
Si1241 Si    0.89539   0.30786   0.10329   0.01267  Uiso   1.00
Si1242 Si    0.80727   0.11342   0.05037   0.01267  Uiso   1.00
Si1243 Si    0.77008   0.12614   0.09975   0.01267  Uiso   1.00
Si1244 Si    0.76001   0.11230   0.17396   0.01267  Uiso   1.00
Si1245 Si    0.70745   0.11041   0.17146   0.01267  Uiso   1.00
Si1246 Si    0.69023   0.12842   0.10149   0.01267  Uiso   1.00
Si1247 Si    0.72904   0.11249   0.05551   0.01267  Uiso   1.00
Si1248 Si    0.80673   0.22907   0.05538   0.01267  Uiso   1.00
Si1249 Si    0.76853   0.20511   0.10060   0.01267  Uiso   1.00
Si1250 Si    0.75695   0.22722   0.17287   0.01267  Uiso   1.00
Si1251 Si    0.70543   0.23032   0.17116   0.01267  Uiso   1.00
Si1252 Si    0.68913   0.20724   0.10115   0.01267  Uiso   1.00
Si1253 Si    0.72789   0.22713   0.05596   0.01267  Uiso   1.00
Si1254 Si    0.69139   0.17162   0.21572   0.01267  Uiso   1.00
Si1255 Si    0.72948   0.15617   0.26544   0.01267  Uiso   1.00
Si1256 Si    0.73970   0.17253   0.00524   0.01267  Uiso   1.00
Si1257 Si    0.79207   0.17523   0.00493   0.01267  Uiso   1.00
Si1258 Si    0.81005   0.15682   0.26801   0.01267  Uiso   1.00
Si1259 Si    0.77107   0.17253   0.22252   0.01267  Uiso   1.00
Si1260 Si    0.69236   0.05568   0.22140   0.01267  Uiso   1.00
Si1261 Si    0.73067   0.07646   0.26755   0.01267  Uiso   1.00
Si1262 Si    0.74294   0.05798   0.00709   0.01267  Uiso   1.00
Si1263 Si    0.79389   0.05698   0.00403   0.01267  Uiso   1.00
Si1264 Si    0.80983   0.07764   0.26615   0.01267  Uiso   1.00
Si1265 Si    0.77095   0.05476   0.22232   0.01267  Uiso   1.00
Si1266 Si    0.85683   0.40816   0.05897   0.01267  Uiso   1.00
Si1267 Si    0.85591   0.32902   0.05964   0.01267  Uiso   1.00
Al1268 Al    0.75667   0.30751   0.17189   0.01267  Uiso   1.00
O1269  O     0.78940   0.42634   0.07748   0.01267  Uiso   1.00
O1270  O     0.77179   0.41609   0.13599   0.01267  Uiso   1.00
O1271  O     0.73318   0.42387   0.16494   0.01267  Uiso   1.00
O1272  O     0.69481   0.42325   0.13519   0.01267  Uiso   1.00
O1273  O     0.70397   0.42396   0.07094   0.01267  Uiso   1.00
O1274  O     0.74621   0.42280   0.08436   0.01267  Uiso   1.00
O1275  O     0.78933   0.31005   0.08395   0.01267  Uiso   1.00
O1276  O     0.76993   0.32633   0.13957   0.01267  Uiso   1.00
O1277  O     0.72996   0.32007   0.17664   0.01267  Uiso   1.00
O1278  O     0.69539   0.31240   0.13669   0.01267  Uiso   1.00
O1279  O     0.70365   0.31059   0.07264   0.01267  Uiso   1.00
O1280  O     0.74593   0.31450   0.08662   0.01267  Uiso   1.00
O1281  O     0.77068   0.36866   0.08914   0.01267  Uiso   1.00
O1282  O     0.69409   0.36770   0.10106   0.01267  Uiso   1.00
O1283  O     0.80855   0.45711   0.02726   0.01267  Uiso   1.00
O1284  O     0.80233   0.39215   0.02426   0.01267  Uiso   1.00
O1285  O     0.79986   0.32606   0.02226   0.01267  Uiso   1.00
O1286  O     0.73094   0.45904   0.03503   0.01267  Uiso   1.00
O1287  O     0.73112   0.39316   0.03027   0.01267  Uiso   1.00
O1288  O     0.73202   0.32720   0.02565   0.01267  Uiso   1.00
O1289  O     0.99711   0.41518   0.09099   0.01267  Uiso   1.00
O1290  O     0.99681   0.32198   0.09332   0.01267  Uiso   1.00
O1291  O     0.70878   0.36110   0.24839   0.01267  Uiso   1.00
O1292  O     0.72814   0.36377   0.30590   0.01267  Uiso   1.00
O1293  O     0.76571   0.36327   0.00482   0.01267  Uiso   1.00
O1294  O     0.80104   0.35975   0.30106   0.01267  Uiso   1.00
O1295  O     0.79466   0.37139   0.23761   0.01267  Uiso   1.00
O1296  O     0.75216   0.36454   0.25220   0.01267  Uiso   1.00
O1297  O     0.71000   0.47433   0.24956   0.01267  Uiso   1.00
O1298  O     0.73146   0.47056   0.30455   0.01267  Uiso   1.00
O1299  O     0.76878   0.46790   0.00407   0.01267  Uiso   1.00
O1300  O     0.80342   0.48032   0.29956   0.01267  Uiso   1.00
O1301  O     0.79580   0.46877   0.23615   0.01267  Uiso   1.00
O1302  O     0.75343   0.46633   0.24865   0.01267  Uiso   1.00
O1303  O     0.72793   0.41705   0.26675   0.01267  Uiso   1.00
O1304  O     0.80726   0.41983   0.27699   0.01267  Uiso   1.00
O1305  O     0.68971   0.32877   0.19900   0.01267  Uiso   1.00
O1306  O     0.69981   0.39284   0.19271   0.01267  Uiso   1.00
O1307  O     0.69984   0.45881   0.18803   0.01267  Uiso   1.00
O1308  O     0.77202   0.32613   0.20771   0.01267  Uiso   1.00
O1309  O     0.76430   0.38971   0.19429   0.01267  Uiso   1.00
O1310  O     0.76828   0.45522   0.18797   0.01267  Uiso   1.00
O1311  O     0.83447   0.37018   0.26030   0.01267  Uiso   1.00
O1312  O     0.83605   0.46554   0.25836   0.01267  Uiso   1.00
O1313  O     0.87760   0.17230   0.24937   0.01267  Uiso   1.00
O1314  O     0.89870   0.17728   0.19343   0.01267  Uiso   1.00
O1315  O     0.93222   0.17091   0.15160   0.01267  Uiso   1.00
O1316  O     0.96503   0.17555   0.19455   0.01267  Uiso   1.00
O1317  O     0.96230   0.16945   0.25936   0.01267  Uiso   1.00
O1318  O     0.92035   0.16160   0.24765   0.01267  Uiso   1.00
O1319  O     0.87741   0.06225   0.24550   0.01267  Uiso   1.00
O1320  O     0.89829   0.06082   0.18941   0.01267  Uiso   1.00
O1321  O     0.93525   0.06783   0.15554   0.01267  Uiso   1.00
O1322  O     0.97052   0.05878   0.19227   0.01267  Uiso   1.00
O1323  O     0.96261   0.06297   0.25619   0.01267  Uiso   1.00
O1324  O     0.92056   0.07226   0.24410   0.01267  Uiso   1.00
O1325  O     0.89347   0.11794   0.22087   0.01267  Uiso   1.00
O1326  O     0.97221   0.11729   0.22179   0.01267  Uiso   1.00
O1327  O     0.85805   0.20719   0.29583   0.01267  Uiso   1.00
O1328  O     0.86338   0.14287   0.30472   0.01267  Uiso   1.00
O1329  O     0.86442   0.07699   0.30646   0.01267  Uiso   1.00
O1330  O     0.93385   0.20684   0.29104   0.01267  Uiso   1.00
O1331  O     0.93704   0.14279   0.30524   0.01267  Uiso   1.00
O1332  O     0.93541   0.07642   0.30540   0.01267  Uiso   1.00
O1333  O     0.66736   0.16662   0.23194   0.01267  Uiso   1.00
O1334  O     0.66938   0.07178   0.23386   0.01267  Uiso   1.00
O1335  O     0.95563   0.11452   0.08319   0.01267  Uiso   1.00
O1336  O     0.93380   0.10944   0.02770   0.01267  Uiso   1.00
O1337  O     0.90012   0.11205   0.31929   0.01267  Uiso   1.00
O1338  O     0.86667   0.11054   0.02796   0.01267  Uiso   1.00
O1339  O     0.86992   0.11510   0.09261   0.01267  Uiso   1.00
O1340  O     0.91244   0.12219   0.08262   0.01267  Uiso   1.00
O1341  O     0.95537   0.22435   0.07783   0.01267  Uiso   1.00
O1342  O     0.93503   0.22320   0.02107   0.01267  Uiso   1.00
O1343  O     0.89689   0.21773   0.32358   0.01267  Uiso   1.00
O1344  O     0.86075   0.22596   0.02536   0.01267  Uiso   1.00
O1345  O     0.86980   0.22364   0.08935   0.01267  Uiso   1.00
O1346  O     0.91192   0.21721   0.07556   0.01267  Uiso   1.00
O1347  O     0.93798   0.16822   0.05654   0.01267  Uiso   1.00
O1348  O     0.86073   0.16841   0.05651   0.01267  Uiso   1.00
O1349  O     0.97460   0.07955   0.13042   0.01267  Uiso   1.00
O1350  O     0.97054   0.14447   0.13767   0.01267  Uiso   1.00
O1351  O     0.96616   0.21009   0.13983   0.01267  Uiso   1.00
O1352  O     0.89723   0.07831   0.12628   0.01267  Uiso   1.00
O1353  O     0.89432   0.14295   0.13846   0.01267  Uiso   1.00
O1354  O     0.89792   0.20906   0.13720   0.01267  Uiso   1.00
O1355  O     0.83130   0.12040   0.06566   0.01267  Uiso   1.00
O1356  O     0.82955   0.21303   0.06885   0.01267  Uiso   1.00
O1357  O     0.87683   0.36250   0.24972   0.01267  Uiso   1.00
O1358  O     0.89664   0.36150   0.19248   0.01267  Uiso   1.00
O1359  O     0.93249   0.36684   0.15557   0.01267  Uiso   1.00
O1360  O     0.96814   0.35966   0.19244   0.01267  Uiso   1.00
O1361  O     0.96205   0.36465   0.25672   0.01267  Uiso   1.00
O1362  O     0.91978   0.37251   0.24616   0.01267  Uiso   1.00
O1363  O     0.87710   0.47738   0.24201   0.01267  Uiso   1.00
O1364  O     0.89724   0.47023   0.18556   0.01267  Uiso   1.00
O1365  O     0.93565   0.46765   0.15539   0.01267  Uiso   1.00
O1366  O     0.97117   0.47701   0.19141   0.01267  Uiso   1.00
O1367  O     0.96203   0.47305   0.25532   0.01267  Uiso   1.00
O1368  O     0.92019   0.46671   0.24059   0.01267  Uiso   1.00
O1369  O     0.89227   0.41853   0.22529   0.01267  Uiso   1.00
O1370  O     0.97058   0.41861   0.22092   0.01267  Uiso   1.00
O1371  O     0.85728   0.32874   0.29719   0.01267  Uiso   1.00
O1372  O     0.86221   0.39364   0.30396   0.01267  Uiso   1.00
O1373  O     0.86748   0.45919   0.30354   0.01267  Uiso   1.00
O1374  O     0.93413   0.32780   0.28946   0.01267  Uiso   1.00
O1375  O     0.93759   0.39228   0.30261   0.01267  Uiso   1.00
O1376  O     0.93342   0.45840   0.30258   0.01267  Uiso   1.00
O1377  O     0.66796   0.37364   0.23292   0.01267  Uiso   1.00
O1378  O     0.66887   0.46271   0.23428   0.01267  Uiso   1.00
O1379  O     0.95463   0.42292   0.08254   0.01267  Uiso   1.00
O1380  O     0.93527   0.42535   0.02506   0.01267  Uiso   1.00
O1381  O     0.90023   0.41942   0.32001   0.01267  Uiso   1.00
O1382  O     0.86581   0.42698   0.02624   0.01267  Uiso   1.00
O1383  O     0.87018   0.42098   0.09093   0.01267  Uiso   1.00
O1384  O     0.91191   0.41171   0.07814   0.01267  Uiso   1.00
O1385  O     0.95619   0.30971   0.07524   0.01267  Uiso   1.00
O1386  O     0.93486   0.31298   0.01978   0.01267  Uiso   1.00
O1387  O     0.89700   0.31815   0.32155   0.01267  Uiso   1.00
O1388  O     0.86215   0.30933   0.02613   0.01267  Uiso   1.00
O1389  O     0.87087   0.31556   0.08980   0.01267  Uiso   1.00
O1390  O     0.91293   0.31945   0.07548   0.01267  Uiso   1.00
O1391  O     0.93987   0.36725   0.05572   0.01267  Uiso   1.00
O1392  O     0.86003   0.36840   0.05405   0.01267  Uiso   1.00
O1393  O     0.97478   0.45664   0.12923   0.01267  Uiso   1.00
O1394  O     0.97013   0.39163   0.13587   0.01267  Uiso   1.00
O1395  O     0.96445   0.32611   0.13740   0.01267  Uiso   1.00
O1396  O     0.89926   0.45769   0.12154   0.01267  Uiso   1.00
O1397  O     0.89540   0.39368   0.13615   0.01267  Uiso   1.00
O1398  O     0.89954   0.32769   0.13740   0.01267  Uiso   1.00
O1399  O     0.83134   0.41712   0.06540   0.01267  Uiso   1.00
O1400  O     0.83048   0.32183   0.06891   0.01267  Uiso   1.00
O1401  O     0.78987   0.10780   0.08008   0.01267  Uiso   1.00
O1402  O     0.77144   0.11555   0.13811   0.01267  Uiso   1.00
O1403  O     0.73368   0.11618   0.17073   0.01267  Uiso   1.00
O1404  O     0.69804   0.10868   0.13429   0.01267  Uiso   1.00
O1405  O     0.70446   0.11619   0.07007   0.01267  Uiso   1.00
O1406  O     0.74644   0.11441   0.08563   0.01267  Uiso   1.00
O1407  O     0.78840   0.22612   0.08404   0.01267  Uiso   1.00
O1408  O     0.76792   0.21253   0.13938   0.01267  Uiso   1.00
O1409  O     0.73080   0.21837   0.17183   0.01267  Uiso   1.00
O1410  O     0.69597   0.22763   0.13387   0.01267  Uiso   1.00
O1411  O     0.70333   0.22007   0.06980   0.01267  Uiso   1.00
O1412  O     0.74536   0.21522   0.08373   0.01267  Uiso   1.00
O1413  O     0.77301   0.16584   0.09455   0.01267  Uiso   1.00
O1414  O     0.69360   0.16797   0.10734   0.01267  Uiso   1.00
O1415  O     0.80858   0.08009   0.02798   0.01267  Uiso   1.00
O1416  O     0.79984   0.14443   0.02762   0.01267  Uiso   1.00
O1417  O     0.79864   0.21005   0.02233   0.01267  Uiso   1.00
O1418  O     0.73098   0.07670   0.03740   0.01267  Uiso   1.00
O1419  O     0.73383   0.14181   0.02930   0.01267  Uiso   1.00
O1420  O     0.73161   0.20712   0.02171   0.01267  Uiso   1.00
O1421  O     0.99807   0.12014   0.09361   0.01267  Uiso   1.00
O1422  O     0.99672   0.21347   0.09297   0.01267  Uiso   1.00
O1423  O     0.70948   0.17260   0.24493   0.01267  Uiso   1.00
O1424  O     0.72733   0.16730   0.30366   0.01267  Uiso   1.00
O1425  O     0.76592   0.17347   0.33245   0.01267  Uiso   1.00
O1426  O     0.80449   0.17373   0.30318   0.01267  Uiso   1.00
O1427  O     0.79523   0.17276   0.23913   0.01267  Uiso   1.00
O1428  O     0.75286   0.16893   0.25149   0.01267  Uiso   1.00
O1429  O     0.70983   0.05773   0.25137   0.01267  Uiso   1.00
O1430  O     0.73083   0.06810   0.30643   0.01267  Uiso   1.00
O1431  O     0.76852   0.06948   0.00515   0.01267  Uiso   1.00
O1432  O     0.80304   0.05899   0.30002   0.01267  Uiso   1.00
O1433  O     0.79535   0.06309   0.23597   0.01267  Uiso   1.00
O1434  O     0.75331   0.06312   0.25119   0.01267  Uiso   1.00
O1435  O     0.72821   0.11605   0.26161   0.01267  Uiso   1.00
O1436  O     0.80559   0.11713   0.27032   0.01267  Uiso   1.00
O1437  O     0.69145   0.20637   0.19558   0.01267  Uiso   1.00
O1438  O     0.69600   0.14097   0.19076   0.01267  Uiso   1.00
O1439  O     0.70160   0.07547   0.18942   0.01267  Uiso   1.00
O1440  O     0.76788   0.20733   0.20357   0.01267  Uiso   1.00
O1441  O     0.76947   0.14119   0.19760   0.01267  Uiso   1.00
O1442  O     0.76595   0.07614   0.18936   0.01267  Uiso   1.00
O1443  O     0.83556   0.16442   0.25938   0.01267  Uiso   1.00
O1444  O     0.83545   0.07061   0.25789   0.01267  Uiso   1.00
O1445  O     0.81063   0.26772   0.04591   0.01267  Uiso   1.00
O1446  O     0.73102   0.26626   0.04797   0.01267  Uiso   1.00
O1447  O     0.76146   0.26600   0.17667   0.01267  Uiso   1.00
O1448  O     0.70262   0.26833   0.18339   0.01267  Uiso   1.00
O1449  O     0.68888   0.01707   0.21143   0.01267  Uiso   1.00
O1450  O     0.76946   0.01576   0.21245   0.01267  Uiso   1.00
O1451  O     0.74119   0.01841   0.01340   0.01267  Uiso   1.00
O1452  O     0.79556   0.01883   0.01681   0.01267  Uiso   1.00
O1453  O     0.85657   0.01826   0.28247   0.01267  Uiso   1.00
O1454  O     0.93355   0.01810   0.27649   0.01267  Uiso   1.00
O1455  O     0.90804   0.01753   0.14285   0.01267  Uiso   1.00
O1456  O     0.96289   0.01804   0.14272   0.01267  Uiso   1.00
O1457  O     0.97649   0.26781   0.11494   0.01267  Uiso   1.00
O1458  O     0.89793   0.26858   0.11101   0.01267  Uiso   1.00
O1459  O     0.92404   0.26754   0.30898   0.01267  Uiso   1.00
O1460  O     0.86948   0.26784   0.31053   0.01267  Uiso   1.00
Si1461 Si    0.80762   0.92298   0.04862   0.01267  Uiso   1.00
Si1462 Si    0.76949   0.90810   0.09695   0.01267  Uiso   1.00
Si1463 Si    0.75927   0.92159   0.17067   0.01267  Uiso   1.00
Si1464 Si    0.70690   0.92434   0.17042   0.01267  Uiso   1.00
Si1465 Si    0.68922   0.90720   0.09963   0.01267  Uiso   1.00
Si1466 Si    0.72825   0.92442   0.05495   0.01267  Uiso   1.00
Si1467 Si    0.80747   0.80650   0.05532   0.01267  Uiso   1.00
Si1468 Si    0.76888   0.82979   0.10059   0.01267  Uiso   1.00
Si1469 Si    0.70507   0.80747   0.17370   0.01267  Uiso   1.00
Si1470 Si    0.68923   0.82808   0.10138   0.01267  Uiso   1.00
Si1471 Si    0.72823   0.80484   0.05844   0.01267  Uiso   1.00
Si1472 Si    0.69169   0.86400   0.21789   0.01267  Uiso   1.00
Si1473 Si    0.72901   0.87694   0.26843   0.01267  Uiso   1.00
Si1474 Si    0.73934   0.86181   0.00870   0.01267  Uiso   1.00
Si1475 Si    0.79206   0.86046   0.00533   0.01267  Uiso   1.00
Si1476 Si    0.80959   0.88055   0.26955   0.01267  Uiso   1.00
Si1477 Si    0.77036   0.86499   0.22372   0.01267  Uiso   1.00
Si1478 Si    0.69182   0.97821   0.22083   0.01267  Uiso   1.00
Si1479 Si    0.73073   0.95703   0.26726   0.01267  Uiso   1.00
Si1480 Si    0.74315   0.97913   0.00589   0.01267  Uiso   1.00
Si1481 Si    0.79406   0.98090   0.00363   0.01267  Uiso   1.00
Si1482 Si    0.81062   0.95876   0.26770   0.01267  Uiso   1.00
Si1483 Si    0.77163   0.97672   0.22139   0.01267  Uiso   1.00
Si1484 Si    0.85878   0.67141   0.27739   0.01267  Uiso   1.00
Si1485 Si    0.89756   0.65709   0.22797   0.01267  Uiso   1.00
Si1486 Si    0.90590   0.67508   0.15508   0.01267  Uiso   1.00
Si1487 Si    0.95846   0.67518   0.15602   0.01267  Uiso   1.00
Si1488 Si    0.97520   0.65709   0.22669   0.01267  Uiso   1.00
Si1489 Si    0.93817   0.67015   0.27593   0.01267  Uiso   1.00
Si1490 Si    0.85847   0.55719   0.27291   0.01267  Uiso   1.00
Si1491 Si    0.89751   0.57839   0.22518   0.01267  Uiso   1.00
Si1492 Si    0.90972   0.55615   0.15367   0.01267  Uiso   1.00
Si1493 Si    0.96081   0.55614   0.15533   0.01267  Uiso   1.00
Si1494 Si    0.97700   0.57794   0.22596   0.01267  Uiso   1.00
Si1495 Si    0.93802   0.55734   0.27043   0.01267  Uiso   1.00
Si1496 Si    0.97448   0.61488   0.11116   0.01267  Uiso   1.00
Si1497 Si    0.93497   0.62873   0.06265   0.01267  Uiso   1.00
Si1498 Si    0.92656   0.61020   0.32273   0.01267  Uiso   1.00
Si1499 Si    0.87376   0.61072   0.32300   0.01267  Uiso   1.00
Si1500 Si    0.85701   0.62868   0.06051   0.01267  Uiso   1.00
Si1501 Si    0.89378   0.61468   0.10999   0.01267  Uiso   1.00
Si1502 Si    0.97375   0.72884   0.10626   0.01267  Uiso   1.00
Si1503 Si    0.93508   0.70814   0.05803   0.01267  Uiso   1.00
Si1504 Si    0.92248   0.72881   0.31969   0.01267  Uiso   1.00
Si1505 Si    0.87137   0.72946   0.32235   0.01267  Uiso   1.00
Si1506 Si    0.85521   0.70759   0.05991   0.01267  Uiso   1.00
Si1507 Si    0.89452   0.72952   0.10315   0.01267  Uiso   1.00
Si1508 Si    0.85806   0.86398   0.27775   0.01267  Uiso   1.00
Si1509 Si    0.89647   0.87890   0.22837   0.01267  Uiso   1.00
Si1510 Si    0.90612   0.86228   0.15525   0.01267  Uiso   1.00
Si1511 Si    0.95874   0.86100   0.15528   0.01267  Uiso   1.00
Si1512 Si    0.97555   0.87918   0.22554   0.01267  Uiso   1.00
Si1513 Si    0.93811   0.86436   0.27383   0.01267  Uiso   1.00
Si1514 Si    0.85934   0.97989   0.27154   0.01267  Uiso   1.00
Si1515 Si    0.89685   0.95812   0.22348   0.01267  Uiso   1.00
Si1516 Si    0.91006   0.97839   0.15155   0.01267  Uiso   1.00
Si1517 Si    0.96112   0.97968   0.15467   0.01267  Uiso   1.00
Si1518 Si    0.97649   0.95764   0.22544   0.01267  Uiso   1.00
Si1519 Si    0.93727   0.97903   0.26873   0.01267  Uiso   1.00
Si1520 Si    0.97400   0.92148   0.10966   0.01267  Uiso   1.00
Si1521 Si    0.93544   0.90665   0.06041   0.01267  Uiso   1.00
Si1522 Si    0.92662   0.92401   0.32075   0.01267  Uiso   1.00
Si1523 Si    0.87403   0.92485   0.32180   0.01267  Uiso   1.00
Si1524 Si    0.89449   0.92099   0.10683   0.01267  Uiso   1.00
Si1525 Si    0.97359   0.80653   0.10522   0.01267  Uiso   1.00
Si1526 Si    0.93587   0.82747   0.05682   0.01267  Uiso   1.00
Si1527 Si    0.92253   0.80655   0.31846   0.01267  Uiso   1.00
Si1528 Si    0.87154   0.80616   0.32235   0.01267  Uiso   1.00
Si1529 Si    0.89539   0.80786   0.10329   0.01267  Uiso   1.00
Si1530 Si    0.80727   0.61342   0.05037   0.01267  Uiso   1.00
Si1531 Si    0.77008   0.62614   0.09975   0.01267  Uiso   1.00
Si1532 Si    0.76001   0.61230   0.17396   0.01267  Uiso   1.00
Si1533 Si    0.70745   0.61041   0.17146   0.01267  Uiso   1.00
Si1534 Si    0.69023   0.62842   0.10149   0.01267  Uiso   1.00
Si1535 Si    0.72904   0.61249   0.05551   0.01267  Uiso   1.00
Si1536 Si    0.80673   0.72907   0.05538   0.01267  Uiso   1.00
Si1537 Si    0.76853   0.70511   0.10060   0.01267  Uiso   1.00
Si1538 Si    0.75695   0.72722   0.17287   0.01267  Uiso   1.00
Si1539 Si    0.70543   0.73032   0.17116   0.01267  Uiso   1.00
Si1540 Si    0.68913   0.70724   0.10115   0.01267  Uiso   1.00
Si1541 Si    0.72789   0.72713   0.05596   0.01267  Uiso   1.00
Si1542 Si    0.69139   0.67162   0.21572   0.01267  Uiso   1.00
Si1543 Si    0.72948   0.65617   0.26544   0.01267  Uiso   1.00
Si1544 Si    0.73970   0.67253   0.00524   0.01267  Uiso   1.00
Si1545 Si    0.79207   0.67523   0.00493   0.01267  Uiso   1.00
Si1546 Si    0.81005   0.65682   0.26801   0.01267  Uiso   1.00
Si1547 Si    0.77107   0.67253   0.22252   0.01267  Uiso   1.00
Si1548 Si    0.69236   0.55568   0.22140   0.01267  Uiso   1.00
Si1549 Si    0.73067   0.57646   0.26755   0.01267  Uiso   1.00
Si1550 Si    0.74294   0.55798   0.00709   0.01267  Uiso   1.00
Si1551 Si    0.79389   0.55698   0.00403   0.01267  Uiso   1.00
Si1552 Si    0.80983   0.57764   0.26615   0.01267  Uiso   1.00
Si1553 Si    0.77095   0.55476   0.22232   0.01267  Uiso   1.00
Si1554 Si    0.85683   0.90816   0.05897   0.01267  Uiso   1.00
Si1555 Si    0.85591   0.82902   0.05964   0.01267  Uiso   1.00
Al1556 Al    0.75667   0.80751   0.17189   0.01267  Uiso   1.00
O1557  O     0.78940   0.92634   0.07748   0.01267  Uiso   1.00
O1558  O     0.77179   0.91609   0.13599   0.01267  Uiso   1.00
O1559  O     0.73318   0.92387   0.16494   0.01267  Uiso   1.00
O1560  O     0.69481   0.92325   0.13519   0.01267  Uiso   1.00
O1561  O     0.70397   0.92396   0.07094   0.01267  Uiso   1.00
O1562  O     0.74621   0.92280   0.08436   0.01267  Uiso   1.00
O1563  O     0.78933   0.81005   0.08395   0.01267  Uiso   1.00
O1564  O     0.76993   0.82633   0.13957   0.01267  Uiso   1.00
O1565  O     0.72996   0.82007   0.17664   0.01267  Uiso   1.00
O1566  O     0.69539   0.81240   0.13669   0.01267  Uiso   1.00
O1567  O     0.70365   0.81059   0.07264   0.01267  Uiso   1.00
O1568  O     0.74593   0.81450   0.08662   0.01267  Uiso   1.00
O1569  O     0.77068   0.86866   0.08914   0.01267  Uiso   1.00
O1570  O     0.69409   0.86770   0.10106   0.01267  Uiso   1.00
O1571  O     0.80855   0.95711   0.02726   0.01267  Uiso   1.00
O1572  O     0.80233   0.89215   0.02426   0.01267  Uiso   1.00
O1573  O     0.79986   0.82606   0.02226   0.01267  Uiso   1.00
O1574  O     0.73094   0.95904   0.03503   0.01267  Uiso   1.00
O1575  O     0.73112   0.89316   0.03027   0.01267  Uiso   1.00
O1576  O     0.73202   0.82720   0.02565   0.01267  Uiso   1.00
O1577  O     0.99711   0.91518   0.09099   0.01267  Uiso   1.00
O1578  O     0.99681   0.82198   0.09332   0.01267  Uiso   1.00
O1579  O     0.70878   0.86110   0.24839   0.01267  Uiso   1.00
O1580  O     0.72814   0.86377   0.30590   0.01267  Uiso   1.00
O1581  O     0.76571   0.86327   0.00482   0.01267  Uiso   1.00
O1582  O     0.80104   0.85975   0.30106   0.01267  Uiso   1.00
O1583  O     0.79466   0.87139   0.23761   0.01267  Uiso   1.00
O1584  O     0.75216   0.86454   0.25220   0.01267  Uiso   1.00
O1585  O     0.71000   0.97433   0.24956   0.01267  Uiso   1.00
O1586  O     0.73146   0.97056   0.30455   0.01267  Uiso   1.00
O1587  O     0.76878   0.96790   0.00407   0.01267  Uiso   1.00
O1588  O     0.80342   0.98032   0.29956   0.01267  Uiso   1.00
O1589  O     0.79580   0.96877   0.23615   0.01267  Uiso   1.00
O1590  O     0.75343   0.96633   0.24865   0.01267  Uiso   1.00
O1591  O     0.72793   0.91705   0.26675   0.01267  Uiso   1.00
O1592  O     0.80726   0.91983   0.27699   0.01267  Uiso   1.00
O1593  O     0.68971   0.82877   0.19900   0.01267  Uiso   1.00
O1594  O     0.69981   0.89284   0.19271   0.01267  Uiso   1.00
O1595  O     0.69984   0.95881   0.18803   0.01267  Uiso   1.00
O1596  O     0.77202   0.82613   0.20771   0.01267  Uiso   1.00
O1597  O     0.76430   0.88971   0.19429   0.01267  Uiso   1.00
O1598  O     0.76828   0.95522   0.18797   0.01267  Uiso   1.00
O1599  O     0.83447   0.87018   0.26030   0.01267  Uiso   1.00
O1600  O     0.83605   0.96554   0.25836   0.01267  Uiso   1.00
O1601  O     0.87760   0.67230   0.24937   0.01267  Uiso   1.00
O1602  O     0.89870   0.67728   0.19343   0.01267  Uiso   1.00
O1603  O     0.93222   0.67091   0.15160   0.01267  Uiso   1.00
O1604  O     0.96503   0.67555   0.19455   0.01267  Uiso   1.00
O1605  O     0.96230   0.66945   0.25936   0.01267  Uiso   1.00
O1606  O     0.92035   0.66160   0.24765   0.01267  Uiso   1.00
O1607  O     0.87741   0.56225   0.24550   0.01267  Uiso   1.00
O1608  O     0.89829   0.56082   0.18941   0.01267  Uiso   1.00
O1609  O     0.93525   0.56783   0.15554   0.01267  Uiso   1.00
O1610  O     0.97052   0.55878   0.19227   0.01267  Uiso   1.00
O1611  O     0.96261   0.56297   0.25619   0.01267  Uiso   1.00
O1612  O     0.92056   0.57226   0.24410   0.01267  Uiso   1.00
O1613  O     0.89347   0.61794   0.22087   0.01267  Uiso   1.00
O1614  O     0.97221   0.61729   0.22179   0.01267  Uiso   1.00
O1615  O     0.85805   0.70719   0.29583   0.01267  Uiso   1.00
O1616  O     0.86338   0.64287   0.30472   0.01267  Uiso   1.00
O1617  O     0.86442   0.57699   0.30646   0.01267  Uiso   1.00
O1618  O     0.93385   0.70684   0.29104   0.01267  Uiso   1.00
O1619  O     0.93704   0.64279   0.30524   0.01267  Uiso   1.00
O1620  O     0.93541   0.57642   0.30540   0.01267  Uiso   1.00
O1621  O     0.66736   0.66662   0.23194   0.01267  Uiso   1.00
O1622  O     0.66938   0.57178   0.23386   0.01267  Uiso   1.00
O1623  O     0.95563   0.61452   0.08319   0.01267  Uiso   1.00
O1624  O     0.93380   0.60944   0.02770   0.01267  Uiso   1.00
O1625  O     0.90012   0.61205   0.31929   0.01267  Uiso   1.00
O1626  O     0.86667   0.61054   0.02796   0.01267  Uiso   1.00
O1627  O     0.86992   0.61510   0.09261   0.01267  Uiso   1.00
O1628  O     0.91244   0.62219   0.08262   0.01267  Uiso   1.00
O1629  O     0.95537   0.72435   0.07783   0.01267  Uiso   1.00
O1630  O     0.93503   0.72320   0.02107   0.01267  Uiso   1.00
O1631  O     0.89689   0.71773   0.32358   0.01267  Uiso   1.00
O1632  O     0.86075   0.72596   0.02536   0.01267  Uiso   1.00
O1633  O     0.86980   0.72364   0.08935   0.01267  Uiso   1.00
O1634  O     0.91192   0.71721   0.07556   0.01267  Uiso   1.00
O1635  O     0.93798   0.66822   0.05654   0.01267  Uiso   1.00
O1636  O     0.86073   0.66841   0.05651   0.01267  Uiso   1.00
O1637  O     0.97460   0.57955   0.13042   0.01267  Uiso   1.00
O1638  O     0.97054   0.64447   0.13767   0.01267  Uiso   1.00
O1639  O     0.96616   0.71009   0.13983   0.01267  Uiso   1.00
O1640  O     0.89723   0.57831   0.12628   0.01267  Uiso   1.00
O1641  O     0.89432   0.64295   0.13846   0.01267  Uiso   1.00
O1642  O     0.89792   0.70906   0.13720   0.01267  Uiso   1.00
O1643  O     0.83130   0.62040   0.06566   0.01267  Uiso   1.00
O1644  O     0.82955   0.71303   0.06885   0.01267  Uiso   1.00
O1645  O     0.87683   0.86250   0.24972   0.01267  Uiso   1.00
O1646  O     0.89664   0.86150   0.19248   0.01267  Uiso   1.00
O1647  O     0.93249   0.86684   0.15557   0.01267  Uiso   1.00
O1648  O     0.96814   0.85966   0.19244   0.01267  Uiso   1.00
O1649  O     0.96205   0.86465   0.25672   0.01267  Uiso   1.00
O1650  O     0.91978   0.87251   0.24616   0.01267  Uiso   1.00
O1651  O     0.87710   0.97738   0.24201   0.01267  Uiso   1.00
O1652  O     0.89724   0.97023   0.18556   0.01267  Uiso   1.00
O1653  O     0.93565   0.96765   0.15539   0.01267  Uiso   1.00
O1654  O     0.97117   0.97701   0.19141   0.01267  Uiso   1.00
O1655  O     0.96203   0.97304   0.25532   0.01267  Uiso   1.00
O1656  O     0.92019   0.96671   0.24059   0.01267  Uiso   1.00
O1657  O     0.89227   0.91853   0.22529   0.01267  Uiso   1.00
O1658  O     0.97058   0.91861   0.22092   0.01267  Uiso   1.00
O1659  O     0.85728   0.82874   0.29719   0.01267  Uiso   1.00
O1660  O     0.86221   0.89364   0.30396   0.01267  Uiso   1.00
O1661  O     0.86748   0.95919   0.30354   0.01267  Uiso   1.00
O1662  O     0.93413   0.82780   0.28946   0.01267  Uiso   1.00
O1663  O     0.93759   0.89228   0.30261   0.01267  Uiso   1.00
O1664  O     0.93342   0.95840   0.30258   0.01267  Uiso   1.00
O1665  O     0.66796   0.87364   0.23292   0.01267  Uiso   1.00
O1666  O     0.66887   0.96271   0.23428   0.01267  Uiso   1.00
O1667  O     0.95463   0.92292   0.08254   0.01267  Uiso   1.00
O1668  O     0.93527   0.92535   0.02506   0.01267  Uiso   1.00
O1669  O     0.90023   0.91942   0.32001   0.01267  Uiso   1.00
O1670  O     0.86581   0.92698   0.02624   0.01267  Uiso   1.00
O1671  O     0.87018   0.92098   0.09093   0.01267  Uiso   1.00
O1672  O     0.91191   0.91171   0.07814   0.01267  Uiso   1.00
O1673  O     0.95619   0.80971   0.07524   0.01267  Uiso   1.00
O1674  O     0.93486   0.81298   0.01978   0.01267  Uiso   1.00
O1675  O     0.89700   0.81815   0.32155   0.01267  Uiso   1.00
O1676  O     0.86215   0.80933   0.02613   0.01267  Uiso   1.00
O1677  O     0.87087   0.81556   0.08980   0.01267  Uiso   1.00
O1678  O     0.91293   0.81945   0.07548   0.01267  Uiso   1.00
O1679  O     0.93987   0.86725   0.05572   0.01267  Uiso   1.00
O1680  O     0.86003   0.86840   0.05405   0.01267  Uiso   1.00
O1681  O     0.97478   0.95664   0.12923   0.01267  Uiso   1.00
O1682  O     0.97013   0.89163   0.13587   0.01267  Uiso   1.00
O1683  O     0.96445   0.82611   0.13740   0.01267  Uiso   1.00
O1684  O     0.89926   0.95769   0.12154   0.01267  Uiso   1.00
O1685  O     0.89540   0.89368   0.13615   0.01267  Uiso   1.00
O1686  O     0.89954   0.82769   0.13740   0.01267  Uiso   1.00
O1687  O     0.83134   0.91712   0.06540   0.01267  Uiso   1.00
O1688  O     0.83048   0.82183   0.06891   0.01267  Uiso   1.00
O1689  O     0.78987   0.60780   0.08008   0.01267  Uiso   1.00
O1690  O     0.77144   0.61555   0.13811   0.01267  Uiso   1.00
O1691  O     0.73368   0.61618   0.17073   0.01267  Uiso   1.00
O1692  O     0.69804   0.60868   0.13429   0.01267  Uiso   1.00
O1693  O     0.70446   0.61619   0.07007   0.01267  Uiso   1.00
O1694  O     0.74644   0.61441   0.08563   0.01267  Uiso   1.00
O1695  O     0.78840   0.72612   0.08404   0.01267  Uiso   1.00
O1696  O     0.76792   0.71253   0.13938   0.01267  Uiso   1.00
O1697  O     0.73080   0.71837   0.17183   0.01267  Uiso   1.00
O1698  O     0.69597   0.72763   0.13387   0.01267  Uiso   1.00
O1699  O     0.70333   0.72007   0.06980   0.01267  Uiso   1.00
O1700  O     0.74536   0.71522   0.08373   0.01267  Uiso   1.00
O1701  O     0.77301   0.66584   0.09455   0.01267  Uiso   1.00
O1702  O     0.69360   0.66797   0.10734   0.01267  Uiso   1.00
O1703  O     0.80858   0.58009   0.02798   0.01267  Uiso   1.00
O1704  O     0.79984   0.64443   0.02762   0.01267  Uiso   1.00
O1705  O     0.79864   0.71005   0.02233   0.01267  Uiso   1.00
O1706  O     0.73098   0.57670   0.03740   0.01267  Uiso   1.00
O1707  O     0.73383   0.64181   0.02930   0.01267  Uiso   1.00
O1708  O     0.73161   0.70712   0.02171   0.01267  Uiso   1.00
O1709  O     0.99807   0.62014   0.09361   0.01267  Uiso   1.00
O1710  O     0.99672   0.71347   0.09297   0.01267  Uiso   1.00
O1711  O     0.70948   0.67260   0.24493   0.01267  Uiso   1.00
O1712  O     0.72733   0.66730   0.30366   0.01267  Uiso   1.00
O1713  O     0.76592   0.67347   0.33245   0.01267  Uiso   1.00
O1714  O     0.80449   0.67373   0.30318   0.01267  Uiso   1.00
O1715  O     0.79523   0.67276   0.23913   0.01267  Uiso   1.00
O1716  O     0.75286   0.66893   0.25149   0.01267  Uiso   1.00
O1717  O     0.70983   0.55773   0.25137   0.01267  Uiso   1.00
O1718  O     0.73083   0.56810   0.30643   0.01267  Uiso   1.00
O1719  O     0.76852   0.56948   0.00515   0.01267  Uiso   1.00
O1720  O     0.80304   0.55899   0.30002   0.01267  Uiso   1.00
O1721  O     0.79535   0.56309   0.23597   0.01267  Uiso   1.00
O1722  O     0.75331   0.56312   0.25119   0.01267  Uiso   1.00
O1723  O     0.72821   0.61605   0.26161   0.01267  Uiso   1.00
O1724  O     0.80559   0.61713   0.27032   0.01267  Uiso   1.00
O1725  O     0.69145   0.70637   0.19558   0.01267  Uiso   1.00
O1726  O     0.69600   0.64097   0.19076   0.01267  Uiso   1.00
O1727  O     0.70160   0.57547   0.18942   0.01267  Uiso   1.00
O1728  O     0.76788   0.70733   0.20357   0.01267  Uiso   1.00
O1729  O     0.76947   0.64119   0.19760   0.01267  Uiso   1.00
O1730  O     0.76595   0.57614   0.18936   0.01267  Uiso   1.00
O1731  O     0.83556   0.66442   0.25938   0.01267  Uiso   1.00
O1732  O     0.83545   0.57061   0.25789   0.01267  Uiso   1.00
O1733  O     0.81063   0.76772   0.04591   0.01267  Uiso   1.00
O1734  O     0.73102   0.76626   0.04797   0.01267  Uiso   1.00
O1735  O     0.76146   0.76600   0.17667   0.01267  Uiso   1.00
O1736  O     0.70262   0.76833   0.18339   0.01267  Uiso   1.00
O1737  O     0.68888   0.51707   0.21143   0.01267  Uiso   1.00
O1738  O     0.76946   0.51576   0.21245   0.01267  Uiso   1.00
O1739  O     0.74119   0.51841   0.01340   0.01267  Uiso   1.00
O1740  O     0.79556   0.51882   0.01681   0.01267  Uiso   1.00
O1741  O     0.85657   0.51826   0.28247   0.01267  Uiso   1.00
O1742  O     0.93355   0.51810   0.27649   0.01267  Uiso   1.00
O1743  O     0.90804   0.51753   0.14285   0.01267  Uiso   1.00
O1744  O     0.96289   0.51804   0.14272   0.01267  Uiso   1.00
O1745  O     0.97649   0.76781   0.11494   0.01267  Uiso   1.00
O1746  O     0.89793   0.76858   0.11101   0.01267  Uiso   1.00
O1747  O     0.92404   0.76754   0.30898   0.01267  Uiso   1.00
O1748  O     0.86948   0.76784   0.31053   0.01267  Uiso   1.00
H1749  H     0.78689   0.81610   0.20975   0.01267  Uiso   1.00
H1750  H     0.84410   0.76431   0.13009   0.01267  Uiso   1.00
H1751  H     0.82011   0.81753   0.14279   0.01267  Uiso   1.00
H1752  H     0.85567   0.73341   0.18476   0.01267  Uiso   1.00
H1753  H     0.84010   0.76396   0.23747   0.01267  Uiso   1.00
C1754  C     0.84557   0.75567   0.18412   0.01267  Uiso   1.00
C1755  C     0.83773   0.77085   0.21189   0.01267  Uiso   1.00
C1756  C     0.83944   0.77245   0.15462   0.01267  Uiso   1.00
C1757  C     0.82712   0.80027   0.16037   0.01267  Uiso   1.00
S1758  S     0.82348   0.80629   0.20186   0.01267  Uiso   1.00
Si1759 Si    0.14096   0.42298   0.38196   0.01267  Uiso   1.00
Si1760 Si    0.10282   0.40810   0.43028   0.01267  Uiso   1.00
Si1761 Si    0.09260   0.42159   0.50400   0.01267  Uiso   1.00
Si1762 Si    0.04023   0.42434   0.50376   0.01267  Uiso   1.00
Si1763 Si    0.02255   0.40720   0.43297   0.01267  Uiso   1.00
Si1764 Si    0.06158   0.42442   0.38829   0.01267  Uiso   1.00
Si1765 Si    0.14080   0.30650   0.38865   0.01267  Uiso   1.00
Si1766 Si    0.10221   0.32979   0.43393   0.01267  Uiso   1.00
Si1767 Si    0.03840   0.30747   0.50703   0.01267  Uiso   1.00
Si1768 Si    0.02257   0.32808   0.43472   0.01267  Uiso   1.00
Si1769 Si    0.06157   0.30484   0.39178   0.01267  Uiso   1.00
Si1770 Si    0.02503   0.36400   0.55123   0.01267  Uiso   1.00
Si1771 Si    0.06234   0.37694   0.60176   0.01267  Uiso   1.00
Si1772 Si    0.07267   0.36181   0.34203   0.01267  Uiso   1.00
Si1773 Si    0.12539   0.36046   0.33867   0.01267  Uiso   1.00
Si1774 Si    0.14292   0.38055   0.60289   0.01267  Uiso   1.00
Si1775 Si    0.10369   0.36499   0.55705   0.01267  Uiso   1.00
Si1776 Si    0.02515   0.47821   0.55417   0.01267  Uiso   1.00
Si1777 Si    0.06406   0.45703   0.60060   0.01267  Uiso   1.00
Si1778 Si    0.07649   0.47913   0.33922   0.01267  Uiso   1.00
Si1779 Si    0.12739   0.48090   0.33696   0.01267  Uiso   1.00
Si1780 Si    0.14395   0.45876   0.60104   0.01267  Uiso   1.00
Si1781 Si    0.10496   0.47672   0.55472   0.01267  Uiso   1.00
Si1782 Si    0.19211   0.17141   0.61072   0.01267  Uiso   1.00
Si1783 Si    0.23089   0.15709   0.56130   0.01267  Uiso   1.00
Si1784 Si    0.23924   0.17508   0.48842   0.01267  Uiso   1.00
Si1785 Si    0.29180   0.17518   0.48936   0.01267  Uiso   1.00
Si1786 Si    0.30853   0.15709   0.56002   0.01267  Uiso   1.00
Si1787 Si    0.27150   0.17015   0.60926   0.01267  Uiso   1.00
Si1788 Si    0.19181   0.05719   0.60624   0.01267  Uiso   1.00
Si1789 Si    0.23084   0.07839   0.55851   0.01267  Uiso   1.00
Si1790 Si    0.24306   0.05615   0.48701   0.01267  Uiso   1.00
Si1791 Si    0.29414   0.05614   0.48866   0.01267  Uiso   1.00
Si1792 Si    0.31033   0.07794   0.55929   0.01267  Uiso   1.00
Si1793 Si    0.27135   0.05734   0.60376   0.01267  Uiso   1.00
Si1794 Si    0.30781   0.11488   0.44449   0.01267  Uiso   1.00
Si1795 Si    0.26831   0.12873   0.39598   0.01267  Uiso   1.00
Si1796 Si    0.25989   0.11020   0.65606   0.01267  Uiso   1.00
Si1797 Si    0.20709   0.11072   0.65634   0.01267  Uiso   1.00
Si1798 Si    0.19034   0.12868   0.39384   0.01267  Uiso   1.00
Si1799 Si    0.22712   0.11468   0.44332   0.01267  Uiso   1.00
Si1800 Si    0.30708   0.22884   0.43959   0.01267  Uiso   1.00
Si1801 Si    0.26842   0.20814   0.39136   0.01267  Uiso   1.00
Si1802 Si    0.25582   0.22881   0.65302   0.01267  Uiso   1.00
Si1803 Si    0.20470   0.22946   0.65569   0.01267  Uiso   1.00
Si1804 Si    0.18854   0.20759   0.39324   0.01267  Uiso   1.00
Si1805 Si    0.22785   0.22952   0.43649   0.01267  Uiso   1.00
Si1806 Si    0.19139   0.36398   0.61108   0.01267  Uiso   1.00
Si1807 Si    0.22981   0.37890   0.56170   0.01267  Uiso   1.00
Si1808 Si    0.23945   0.36228   0.48858   0.01267  Uiso   1.00
Si1809 Si    0.29207   0.36100   0.48862   0.01267  Uiso   1.00
Si1810 Si    0.30888   0.37918   0.55888   0.01267  Uiso   1.00
Si1811 Si    0.27145   0.36436   0.60717   0.01267  Uiso   1.00
Si1812 Si    0.19267   0.47989   0.60488   0.01267  Uiso   1.00
Si1813 Si    0.23018   0.45812   0.55682   0.01267  Uiso   1.00
Si1814 Si    0.24340   0.47839   0.48489   0.01267  Uiso   1.00
Si1815 Si    0.29445   0.47968   0.48801   0.01267  Uiso   1.00
Si1816 Si    0.30982   0.45764   0.55877   0.01267  Uiso   1.00
Si1817 Si    0.27061   0.47903   0.60206   0.01267  Uiso   1.00
Si1818 Si    0.30734   0.42148   0.44299   0.01267  Uiso   1.00
Si1819 Si    0.26878   0.40665   0.39374   0.01267  Uiso   1.00
Si1820 Si    0.25995   0.42401   0.65409   0.01267  Uiso   1.00
Si1821 Si    0.20736   0.42485   0.65514   0.01267  Uiso   1.00
Si1822 Si    0.22783   0.42099   0.44016   0.01267  Uiso   1.00
Si1823 Si    0.30692   0.30653   0.43855   0.01267  Uiso   1.00
Si1824 Si    0.26921   0.32747   0.39015   0.01267  Uiso   1.00
Si1825 Si    0.25586   0.30655   0.65179   0.01267  Uiso   1.00
Si1826 Si    0.20488   0.30616   0.65569   0.01267  Uiso   1.00
Si1827 Si    0.22872   0.30786   0.43662   0.01267  Uiso   1.00
Si1828 Si    0.14060   0.11342   0.38370   0.01267  Uiso   1.00
Si1829 Si    0.10341   0.12614   0.43308   0.01267  Uiso   1.00
Si1830 Si    0.09335   0.11230   0.50729   0.01267  Uiso   1.00
Si1831 Si    0.04078   0.11041   0.50480   0.01267  Uiso   1.00
Si1832 Si    0.02356   0.12842   0.43482   0.01267  Uiso   1.00
Si1833 Si    0.06237   0.11249   0.38885   0.01267  Uiso   1.00
Si1834 Si    0.14007   0.22907   0.38871   0.01267  Uiso   1.00
Si1835 Si    0.10187   0.20511   0.43393   0.01267  Uiso   1.00
Si1836 Si    0.09028   0.22722   0.50620   0.01267  Uiso   1.00
Si1837 Si    0.03876   0.23032   0.50449   0.01267  Uiso   1.00
Si1838 Si    0.02246   0.20724   0.43448   0.01267  Uiso   1.00
Si1839 Si    0.06123   0.22713   0.38930   0.01267  Uiso   1.00
Si1840 Si    0.02472   0.17162   0.54905   0.01267  Uiso   1.00
Si1841 Si    0.06281   0.15617   0.59878   0.01267  Uiso   1.00
Si1842 Si    0.07303   0.17253   0.33857   0.01267  Uiso   1.00
Si1843 Si    0.12541   0.17523   0.33827   0.01267  Uiso   1.00
Si1844 Si    0.14338   0.15682   0.60134   0.01267  Uiso   1.00
Si1845 Si    0.10440   0.17253   0.55586   0.01267  Uiso   1.00
Si1846 Si    0.02570   0.05568   0.55474   0.01267  Uiso   1.00
Si1847 Si    0.06400   0.07646   0.60089   0.01267  Uiso   1.00
Si1848 Si    0.07627   0.05798   0.34043   0.01267  Uiso   1.00
Si1849 Si    0.12722   0.05698   0.33736   0.01267  Uiso   1.00
Si1850 Si    0.14317   0.07764   0.59948   0.01267  Uiso   1.00
Si1851 Si    0.10428   0.05476   0.55565   0.01267  Uiso   1.00
Si1852 Si    0.19016   0.40816   0.39231   0.01267  Uiso   1.00
Si1853 Si    0.18924   0.32902   0.39298   0.01267  Uiso   1.00
Al1854 Al    0.09000   0.30751   0.50523   0.01267  Uiso   1.00
O1855  O     0.12274   0.42634   0.41081   0.01267  Uiso   1.00
O1856  O     0.10513   0.41609   0.46932   0.01267  Uiso   1.00
O1857  O     0.06651   0.42387   0.49828   0.01267  Uiso   1.00
O1858  O     0.02815   0.42325   0.46852   0.01267  Uiso   1.00
O1859  O     0.03730   0.42396   0.40427   0.01267  Uiso   1.00
O1860  O     0.07954   0.42280   0.41769   0.01267  Uiso   1.00
O1861  O     0.12267   0.31005   0.41728   0.01267  Uiso   1.00
O1862  O     0.10326   0.32633   0.47290   0.01267  Uiso   1.00
O1863  O     0.06329   0.32007   0.50998   0.01267  Uiso   1.00
O1864  O     0.02873   0.31240   0.47002   0.01267  Uiso   1.00
O1865  O     0.03699   0.31059   0.40598   0.01267  Uiso   1.00
O1866  O     0.07926   0.31450   0.41995   0.01267  Uiso   1.00
O1867  O     0.10402   0.36866   0.42247   0.01267  Uiso   1.00
O1868  O     0.02742   0.36770   0.43440   0.01267  Uiso   1.00
O1869  O     0.14188   0.45711   0.36060   0.01267  Uiso   1.00
O1870  O     0.13567   0.39215   0.35759   0.01267  Uiso   1.00
O1871  O     0.13319   0.32606   0.35559   0.01267  Uiso   1.00
O1872  O     0.06427   0.45904   0.36836   0.01267  Uiso   1.00
O1873  O     0.06445   0.39316   0.36360   0.01267  Uiso   1.00
O1874  O     0.06536   0.32720   0.35898   0.01267  Uiso   1.00
O1875  O     0.33044   0.41518   0.42432   0.01267  Uiso   1.00
O1876  O     0.33015   0.32198   0.42665   0.01267  Uiso   1.00
O1877  O     0.04211   0.36110   0.58172   0.01267  Uiso   1.00
O1878  O     0.06147   0.36377   0.63923   0.01267  Uiso   1.00
O1879  O     0.09904   0.36327   0.33816   0.01267  Uiso   1.00
O1880  O     0.13438   0.35975   0.63439   0.01267  Uiso   1.00
O1881  O     0.12799   0.37139   0.57095   0.01267  Uiso   1.00
O1882  O     0.08549   0.36454   0.58553   0.01267  Uiso   1.00
O1883  O     0.04333   0.47433   0.58290   0.01267  Uiso   1.00
O1884  O     0.06479   0.47056   0.63789   0.01267  Uiso   1.00
O1885  O     0.10212   0.46790   0.33740   0.01267  Uiso   1.00
O1886  O     0.13675   0.48032   0.63289   0.01267  Uiso   1.00
O1887  O     0.12914   0.46877   0.56949   0.01267  Uiso   1.00
O1888  O     0.08676   0.46633   0.58199   0.01267  Uiso   1.00
O1889  O     0.06127   0.41705   0.60008   0.01267  Uiso   1.00
O1890  O     0.14060   0.41983   0.61033   0.01267  Uiso   1.00
O1891  O     0.02304   0.32877   0.53233   0.01267  Uiso   1.00
O1892  O     0.03314   0.39284   0.52604   0.01267  Uiso   1.00
O1893  O     0.03317   0.45881   0.52137   0.01267  Uiso   1.00
O1894  O     0.10535   0.32613   0.54105   0.01267  Uiso   1.00
O1895  O     0.09763   0.38971   0.52762   0.01267  Uiso   1.00
O1896  O     0.10161   0.45522   0.52130   0.01267  Uiso   1.00
O1897  O     0.16780   0.37018   0.59363   0.01267  Uiso   1.00
O1898  O     0.16938   0.46554   0.59170   0.01267  Uiso   1.00
O1899  O     0.21094   0.17230   0.58270   0.01267  Uiso   1.00
O1900  O     0.23203   0.17728   0.52676   0.01267  Uiso   1.00
O1901  O     0.26555   0.17091   0.48494   0.01267  Uiso   1.00
O1902  O     0.29836   0.17555   0.52789   0.01267  Uiso   1.00
O1903  O     0.29563   0.16945   0.59269   0.01267  Uiso   1.00
O1904  O     0.25368   0.16160   0.58099   0.01267  Uiso   1.00
O1905  O     0.21075   0.06225   0.57884   0.01267  Uiso   1.00
O1906  O     0.23163   0.06082   0.52275   0.01267  Uiso   1.00
O1907  O     0.26858   0.06783   0.48887   0.01267  Uiso   1.00
O1908  O     0.30386   0.05878   0.52560   0.01267  Uiso   1.00
O1909  O     0.29594   0.06297   0.58953   0.01267  Uiso   1.00
O1910  O     0.25389   0.07226   0.57743   0.01267  Uiso   1.00
O1911  O     0.22680   0.11794   0.55421   0.01267  Uiso   1.00
O1912  O     0.30554   0.11729   0.55513   0.01267  Uiso   1.00
O1913  O     0.19138   0.20719   0.62916   0.01267  Uiso   1.00
O1914  O     0.19671   0.14287   0.63806   0.01267  Uiso   1.00
O1915  O     0.19776   0.07699   0.63979   0.01267  Uiso   1.00
O1916  O     0.26718   0.20684   0.62437   0.01267  Uiso   1.00
O1917  O     0.27037   0.14279   0.63858   0.01267  Uiso   1.00
O1918  O     0.26875   0.07642   0.63874   0.01267  Uiso   1.00
O1919  O     0.00069   0.16662   0.56527   0.01267  Uiso   1.00
O1920  O     0.00272   0.07178   0.56719   0.01267  Uiso   1.00
O1921  O     0.28896   0.11452   0.41652   0.01267  Uiso   1.00
O1922  O     0.26713   0.10944   0.36103   0.01267  Uiso   1.00
O1923  O     0.23345   0.11205   0.65262   0.01267  Uiso   1.00
O1924  O     0.20001   0.11054   0.36129   0.01267  Uiso   1.00
O1925  O     0.20325   0.11510   0.42594   0.01267  Uiso   1.00
O1926  O     0.24577   0.12219   0.41595   0.01267  Uiso   1.00
O1927  O     0.28870   0.22435   0.41117   0.01267  Uiso   1.00
O1928  O     0.26836   0.22320   0.35440   0.01267  Uiso   1.00
O1929  O     0.23022   0.21773   0.65692   0.01267  Uiso   1.00
O1930  O     0.19409   0.22596   0.35869   0.01267  Uiso   1.00
O1931  O     0.20313   0.22364   0.42268   0.01267  Uiso   1.00
O1932  O     0.24526   0.21721   0.40889   0.01267  Uiso   1.00
O1933  O     0.27132   0.16822   0.38987   0.01267  Uiso   1.00
O1934  O     0.19406   0.16841   0.38985   0.01267  Uiso   1.00
O1935  O     0.30793   0.07955   0.46375   0.01267  Uiso   1.00
O1936  O     0.30388   0.14447   0.47100   0.01267  Uiso   1.00
O1937  O     0.29949   0.21009   0.47316   0.01267  Uiso   1.00
O1938  O     0.23056   0.07831   0.45961   0.01267  Uiso   1.00
O1939  O     0.22766   0.14295   0.47179   0.01267  Uiso   1.00
O1940  O     0.23126   0.20906   0.47053   0.01267  Uiso   1.00
O1941  O     0.16464   0.12040   0.39900   0.01267  Uiso   1.00
O1942  O     0.16288   0.21303   0.40218   0.01267  Uiso   1.00
O1943  O     0.21016   0.36250   0.58305   0.01267  Uiso   1.00
O1944  O     0.22997   0.36150   0.52581   0.01267  Uiso   1.00
O1945  O     0.26583   0.36684   0.48890   0.01267  Uiso   1.00
O1946  O     0.30148   0.35966   0.52578   0.01267  Uiso   1.00
O1947  O     0.29538   0.36465   0.59005   0.01267  Uiso   1.00
O1948  O     0.25311   0.37251   0.57949   0.01267  Uiso   1.00
O1949  O     0.21043   0.47738   0.57534   0.01267  Uiso   1.00
O1950  O     0.23057   0.47023   0.51889   0.01267  Uiso   1.00
O1951  O     0.26898   0.46765   0.48872   0.01267  Uiso   1.00
O1952  O     0.30450   0.47701   0.52475   0.01267  Uiso   1.00
O1953  O     0.29536   0.47305   0.58865   0.01267  Uiso   1.00
O1954  O     0.25352   0.46671   0.57392   0.01267  Uiso   1.00
O1955  O     0.22560   0.41853   0.55862   0.01267  Uiso   1.00
O1956  O     0.30392   0.41861   0.55426   0.01267  Uiso   1.00
O1957  O     0.19061   0.32874   0.63052   0.01267  Uiso   1.00
O1958  O     0.19554   0.39364   0.63729   0.01267  Uiso   1.00
O1959  O     0.20081   0.45919   0.63687   0.01267  Uiso   1.00
O1960  O     0.26746   0.32780   0.62280   0.01267  Uiso   1.00
O1961  O     0.27092   0.39228   0.63594   0.01267  Uiso   1.00
O1962  O     0.26675   0.45840   0.63591   0.01267  Uiso   1.00
O1963  O     0.00130   0.37364   0.56626   0.01267  Uiso   1.00
O1964  O     0.00220   0.46271   0.56761   0.01267  Uiso   1.00
O1965  O     0.28797   0.42292   0.41588   0.01267  Uiso   1.00
O1966  O     0.26861   0.42535   0.35839   0.01267  Uiso   1.00
O1967  O     0.23357   0.41942   0.65334   0.01267  Uiso   1.00
O1968  O     0.19914   0.42698   0.35958   0.01267  Uiso   1.00
O1969  O     0.20352   0.42098   0.42427   0.01267  Uiso   1.00
O1970  O     0.24524   0.41171   0.41147   0.01267  Uiso   1.00
O1971  O     0.28952   0.30971   0.40858   0.01267  Uiso   1.00
O1972  O     0.26819   0.31298   0.35312   0.01267  Uiso   1.00
O1973  O     0.23033   0.31815   0.65489   0.01267  Uiso   1.00
O1974  O     0.19548   0.30933   0.35946   0.01267  Uiso   1.00
O1975  O     0.20420   0.31556   0.42313   0.01267  Uiso   1.00
O1976  O     0.24627   0.31945   0.40882   0.01267  Uiso   1.00
O1977  O     0.27321   0.36725   0.38906   0.01267  Uiso   1.00
O1978  O     0.19336   0.36840   0.38739   0.01267  Uiso   1.00
O1979  O     0.30812   0.45664   0.46256   0.01267  Uiso   1.00
O1980  O     0.30347   0.39163   0.46920   0.01267  Uiso   1.00
O1981  O     0.29778   0.32611   0.47073   0.01267  Uiso   1.00
O1982  O     0.23259   0.45769   0.45487   0.01267  Uiso   1.00
O1983  O     0.22873   0.39368   0.46948   0.01267  Uiso   1.00
O1984  O     0.23287   0.32769   0.47074   0.01267  Uiso   1.00
O1985  O     0.16467   0.41712   0.39873   0.01267  Uiso   1.00
O1986  O     0.16381   0.32183   0.40224   0.01267  Uiso   1.00
O1987  O     0.12320   0.10780   0.41341   0.01267  Uiso   1.00
O1988  O     0.10477   0.11555   0.47145   0.01267  Uiso   1.00
O1989  O     0.06702   0.11618   0.50406   0.01267  Uiso   1.00
O1990  O     0.03137   0.10868   0.46762   0.01267  Uiso   1.00
O1991  O     0.03779   0.11619   0.40340   0.01267  Uiso   1.00
O1992  O     0.07978   0.11441   0.41897   0.01267  Uiso   1.00
O1993  O     0.12174   0.22612   0.41738   0.01267  Uiso   1.00
O1994  O     0.10125   0.21253   0.47271   0.01267  Uiso   1.00
O1995  O     0.06413   0.21837   0.50516   0.01267  Uiso   1.00
O1996  O     0.02930   0.22763   0.46720   0.01267  Uiso   1.00
O1997  O     0.03666   0.22007   0.40313   0.01267  Uiso   1.00
O1998  O     0.07869   0.21522   0.41706   0.01267  Uiso   1.00
O1999  O     0.10635   0.16584   0.42789   0.01267  Uiso   1.00
O2000  O     0.02693   0.16797   0.44068   0.01267  Uiso   1.00
O2001  O     0.14192   0.08009   0.36132   0.01267  Uiso   1.00
O2002  O     0.13318   0.14443   0.36096   0.01267  Uiso   1.00
O2003  O     0.13198   0.21005   0.35566   0.01267  Uiso   1.00
O2004  O     0.06431   0.07670   0.37074   0.01267  Uiso   1.00
O2005  O     0.06716   0.14181   0.36264   0.01267  Uiso   1.00
O2006  O     0.06494   0.20712   0.35504   0.01267  Uiso   1.00
O2007  O     0.33140   0.12014   0.42694   0.01267  Uiso   1.00
O2008  O     0.33005   0.21347   0.42630   0.01267  Uiso   1.00
O2009  O     0.04281   0.17260   0.57826   0.01267  Uiso   1.00
O2010  O     0.06066   0.16730   0.63699   0.01267  Uiso   1.00
O2011  O     0.09925   0.17347   0.66578   0.01267  Uiso   1.00
O2012  O     0.13783   0.17373   0.63652   0.01267  Uiso   1.00
O2013  O     0.12857   0.17276   0.57246   0.01267  Uiso   1.00
O2014  O     0.08620   0.16893   0.58482   0.01267  Uiso   1.00
O2015  O     0.04316   0.05773   0.58470   0.01267  Uiso   1.00
O2016  O     0.06416   0.06810   0.63976   0.01267  Uiso   1.00
O2017  O     0.10186   0.06948   0.33848   0.01267  Uiso   1.00
O2018  O     0.13638   0.05899   0.63336   0.01267  Uiso   1.00
O2019  O     0.12868   0.06309   0.56931   0.01267  Uiso   1.00
O2020  O     0.08665   0.06312   0.58452   0.01267  Uiso   1.00
O2021  O     0.06154   0.11605   0.59495   0.01267  Uiso   1.00
O2022  O     0.13892   0.11713   0.60366   0.01267  Uiso   1.00
O2023  O     0.02478   0.20637   0.52892   0.01267  Uiso   1.00
O2024  O     0.02934   0.14097   0.52409   0.01267  Uiso   1.00
O2025  O     0.03494   0.07547   0.52275   0.01267  Uiso   1.00
O2026  O     0.10121   0.20733   0.53691   0.01267  Uiso   1.00
O2027  O     0.10281   0.14119   0.53093   0.01267  Uiso   1.00
O2028  O     0.09929   0.07614   0.52269   0.01267  Uiso   1.00
O2029  O     0.16889   0.16442   0.59272   0.01267  Uiso   1.00
O2030  O     0.16878   0.07061   0.59123   0.01267  Uiso   1.00
O2031  O     0.14397   0.26772   0.37925   0.01267  Uiso   1.00
O2032  O     0.06436   0.26626   0.38130   0.01267  Uiso   1.00
O2033  O     0.09479   0.26600   0.51001   0.01267  Uiso   1.00
O2034  O     0.03596   0.26833   0.51672   0.01267  Uiso   1.00
O2035  O     0.02221   0.01707   0.54476   0.01267  Uiso   1.00
O2036  O     0.10279   0.01576   0.54578   0.01267  Uiso   1.00
O2037  O     0.07453   0.01841   0.34673   0.01267  Uiso   1.00
O2038  O     0.12889   0.01883   0.35014   0.01267  Uiso   1.00
O2039  O     0.18990   0.01826   0.61580   0.01267  Uiso   1.00
O2040  O     0.26689   0.01810   0.60982   0.01267  Uiso   1.00
O2041  O     0.24137   0.01753   0.47619   0.01267  Uiso   1.00
O2042  O     0.29622   0.01804   0.47606   0.01267  Uiso   1.00
O2043  O     0.30982   0.26781   0.44828   0.01267  Uiso   1.00
O2044  O     0.23126   0.26858   0.44435   0.01267  Uiso   1.00
O2045  O     0.25738   0.26754   0.64231   0.01267  Uiso   1.00
O2046  O     0.20281   0.26784   0.64387   0.01267  Uiso   1.00
Si2047 Si    0.14096   0.92298   0.38196   0.01267  Uiso   1.00
Si2048 Si    0.10282   0.90810   0.43028   0.01267  Uiso   1.00
Si2049 Si    0.09260   0.92159   0.50400   0.01267  Uiso   1.00
Si2050 Si    0.04023   0.92434   0.50376   0.01267  Uiso   1.00
Si2051 Si    0.02255   0.90720   0.43297   0.01267  Uiso   1.00
Si2052 Si    0.06158   0.92442   0.38829   0.01267  Uiso   1.00
Si2053 Si    0.14080   0.80650   0.38865   0.01267  Uiso   1.00
Si2054 Si    0.10221   0.82979   0.43393   0.01267  Uiso   1.00
Si2055 Si    0.03840   0.80747   0.50703   0.01267  Uiso   1.00
Si2056 Si    0.02257   0.82808   0.43472   0.01267  Uiso   1.00
Si2057 Si    0.06157   0.80484   0.39178   0.01267  Uiso   1.00
Si2058 Si    0.02503   0.86400   0.55123   0.01267  Uiso   1.00
Si2059 Si    0.06234   0.87694   0.60176   0.01267  Uiso   1.00
Si2060 Si    0.07267   0.86181   0.34203   0.01267  Uiso   1.00
Si2061 Si    0.12539   0.86046   0.33867   0.01267  Uiso   1.00
Si2062 Si    0.14292   0.88055   0.60289   0.01267  Uiso   1.00
Si2063 Si    0.10369   0.86499   0.55705   0.01267  Uiso   1.00
Si2064 Si    0.02515   0.97821   0.55417   0.01267  Uiso   1.00
Si2065 Si    0.06406   0.95703   0.60060   0.01267  Uiso   1.00
Si2066 Si    0.07649   0.97913   0.33922   0.01267  Uiso   1.00
Si2067 Si    0.12739   0.98090   0.33696   0.01267  Uiso   1.00
Si2068 Si    0.14395   0.95876   0.60104   0.01267  Uiso   1.00
Si2069 Si    0.10496   0.97672   0.55472   0.01267  Uiso   1.00
Si2070 Si    0.19211   0.67141   0.61072   0.01267  Uiso   1.00
Si2071 Si    0.23089   0.65709   0.56130   0.01267  Uiso   1.00
Si2072 Si    0.23924   0.67508   0.48842   0.01267  Uiso   1.00
Si2073 Si    0.29180   0.67518   0.48936   0.01267  Uiso   1.00
Si2074 Si    0.30853   0.65709   0.56002   0.01267  Uiso   1.00
Si2075 Si    0.27150   0.67015   0.60926   0.01267  Uiso   1.00
Si2076 Si    0.19181   0.55719   0.60624   0.01267  Uiso   1.00
Si2077 Si    0.23084   0.57839   0.55851   0.01267  Uiso   1.00
Si2078 Si    0.24306   0.55615   0.48701   0.01267  Uiso   1.00
Si2079 Si    0.29414   0.55614   0.48866   0.01267  Uiso   1.00
Si2080 Si    0.31033   0.57794   0.55929   0.01267  Uiso   1.00
Si2081 Si    0.27135   0.55734   0.60376   0.01267  Uiso   1.00
Si2082 Si    0.30781   0.61488   0.44449   0.01267  Uiso   1.00
Si2083 Si    0.26831   0.62873   0.39598   0.01267  Uiso   1.00
Si2084 Si    0.25989   0.61020   0.65606   0.01267  Uiso   1.00
Si2085 Si    0.20709   0.61072   0.65634   0.01267  Uiso   1.00
Si2086 Si    0.19034   0.62868   0.39384   0.01267  Uiso   1.00
Si2087 Si    0.22712   0.61468   0.44332   0.01267  Uiso   1.00
Si2088 Si    0.30708   0.72884   0.43959   0.01267  Uiso   1.00
Si2089 Si    0.26842   0.70814   0.39136   0.01267  Uiso   1.00
Si2090 Si    0.25582   0.72881   0.65302   0.01267  Uiso   1.00
Si2091 Si    0.20470   0.72946   0.65569   0.01267  Uiso   1.00
Si2092 Si    0.18854   0.70759   0.39324   0.01267  Uiso   1.00
Si2093 Si    0.22785   0.72952   0.43649   0.01267  Uiso   1.00
Si2094 Si    0.19139   0.86398   0.61108   0.01267  Uiso   1.00
Si2095 Si    0.22981   0.87890   0.56170   0.01267  Uiso   1.00
Si2096 Si    0.23945   0.86228   0.48858   0.01267  Uiso   1.00
Si2097 Si    0.29207   0.86100   0.48862   0.01267  Uiso   1.00
Si2098 Si    0.30888   0.87918   0.55888   0.01267  Uiso   1.00
Si2099 Si    0.27145   0.86436   0.60717   0.01267  Uiso   1.00
Si2100 Si    0.19267   0.97989   0.60488   0.01267  Uiso   1.00
Si2101 Si    0.23018   0.95812   0.55682   0.01267  Uiso   1.00
Si2102 Si    0.24340   0.97839   0.48489   0.01267  Uiso   1.00
Si2103 Si    0.29445   0.97968   0.48801   0.01267  Uiso   1.00
Si2104 Si    0.30982   0.95764   0.55877   0.01267  Uiso   1.00
Si2105 Si    0.27061   0.97903   0.60206   0.01267  Uiso   1.00
Si2106 Si    0.30734   0.92148   0.44299   0.01267  Uiso   1.00
Si2107 Si    0.26878   0.90665   0.39374   0.01267  Uiso   1.00
Si2108 Si    0.25995   0.92401   0.65409   0.01267  Uiso   1.00
Si2109 Si    0.20736   0.92485   0.65514   0.01267  Uiso   1.00
Si2110 Si    0.22783   0.92099   0.44016   0.01267  Uiso   1.00
Si2111 Si    0.30692   0.80653   0.43855   0.01267  Uiso   1.00
Si2112 Si    0.26921   0.82747   0.39015   0.01267  Uiso   1.00
Si2113 Si    0.25586   0.80655   0.65179   0.01267  Uiso   1.00
Si2114 Si    0.20488   0.80616   0.65569   0.01267  Uiso   1.00
Si2115 Si    0.22872   0.80786   0.43662   0.01267  Uiso   1.00
Si2116 Si    0.14060   0.61342   0.38370   0.01267  Uiso   1.00
Si2117 Si    0.10341   0.62614   0.43308   0.01267  Uiso   1.00
Si2118 Si    0.09335   0.61230   0.50729   0.01267  Uiso   1.00
Si2119 Si    0.04078   0.61041   0.50480   0.01267  Uiso   1.00
Si2120 Si    0.02356   0.62842   0.43482   0.01267  Uiso   1.00
Si2121 Si    0.06237   0.61249   0.38885   0.01267  Uiso   1.00
Si2122 Si    0.14007   0.72907   0.38871   0.01267  Uiso   1.00
Si2123 Si    0.10187   0.70511   0.43393   0.01267  Uiso   1.00
Si2124 Si    0.09028   0.72722   0.50620   0.01267  Uiso   1.00
Si2125 Si    0.03876   0.73032   0.50449   0.01267  Uiso   1.00
Si2126 Si    0.02246   0.70724   0.43448   0.01267  Uiso   1.00
Si2127 Si    0.06123   0.72713   0.38930   0.01267  Uiso   1.00
Si2128 Si    0.02472   0.67162   0.54905   0.01267  Uiso   1.00
Si2129 Si    0.06281   0.65617   0.59878   0.01267  Uiso   1.00
Si2130 Si    0.07303   0.67253   0.33857   0.01267  Uiso   1.00
Si2131 Si    0.12541   0.67523   0.33827   0.01267  Uiso   1.00
Si2132 Si    0.14338   0.65682   0.60134   0.01267  Uiso   1.00
Si2133 Si    0.10440   0.67253   0.55586   0.01267  Uiso   1.00
Si2134 Si    0.02570   0.55568   0.55474   0.01267  Uiso   1.00
Si2135 Si    0.06400   0.57646   0.60089   0.01267  Uiso   1.00
Si2136 Si    0.07627   0.55798   0.34043   0.01267  Uiso   1.00
Si2137 Si    0.12722   0.55698   0.33736   0.01267  Uiso   1.00
Si2138 Si    0.14317   0.57764   0.59948   0.01267  Uiso   1.00
Si2139 Si    0.10428   0.55476   0.55565   0.01267  Uiso   1.00
Si2140 Si    0.19016   0.90816   0.39231   0.01267  Uiso   1.00
Si2141 Si    0.18924   0.82902   0.39298   0.01267  Uiso   1.00
Al2142 Al    0.09000   0.80751   0.50523   0.01267  Uiso   1.00
O2143  O     0.12274   0.92634   0.41081   0.01267  Uiso   1.00
O2144  O     0.10513   0.91609   0.46932   0.01267  Uiso   1.00
O2145  O     0.06651   0.92387   0.49828   0.01267  Uiso   1.00
O2146  O     0.02815   0.92325   0.46852   0.01267  Uiso   1.00
O2147  O     0.03730   0.92396   0.40427   0.01267  Uiso   1.00
O2148  O     0.07954   0.92280   0.41769   0.01267  Uiso   1.00
O2149  O     0.12267   0.81005   0.41728   0.01267  Uiso   1.00
O2150  O     0.10326   0.82633   0.47290   0.01267  Uiso   1.00
O2151  O     0.06329   0.82007   0.50998   0.01267  Uiso   1.00
O2152  O     0.02873   0.81240   0.47002   0.01267  Uiso   1.00
O2153  O     0.03699   0.81059   0.40598   0.01267  Uiso   1.00
O2154  O     0.07926   0.81450   0.41995   0.01267  Uiso   1.00
O2155  O     0.10402   0.86866   0.42247   0.01267  Uiso   1.00
O2156  O     0.02742   0.86770   0.43440   0.01267  Uiso   1.00
O2157  O     0.14188   0.95711   0.36060   0.01267  Uiso   1.00
O2158  O     0.13567   0.89215   0.35759   0.01267  Uiso   1.00
O2159  O     0.13319   0.82606   0.35559   0.01267  Uiso   1.00
O2160  O     0.06427   0.95904   0.36836   0.01267  Uiso   1.00
O2161  O     0.06445   0.89316   0.36360   0.01267  Uiso   1.00
O2162  O     0.06536   0.82720   0.35898   0.01267  Uiso   1.00
O2163  O     0.33044   0.91518   0.42432   0.01267  Uiso   1.00
O2164  O     0.33015   0.82198   0.42665   0.01267  Uiso   1.00
O2165  O     0.04211   0.86110   0.58172   0.01267  Uiso   1.00
O2166  O     0.06147   0.86377   0.63923   0.01267  Uiso   1.00
O2167  O     0.09904   0.86327   0.33816   0.01267  Uiso   1.00
O2168  O     0.13438   0.85975   0.63439   0.01267  Uiso   1.00
O2169  O     0.12799   0.87139   0.57095   0.01267  Uiso   1.00
O2170  O     0.08549   0.86454   0.58553   0.01267  Uiso   1.00
O2171  O     0.04333   0.97433   0.58290   0.01267  Uiso   1.00
O2172  O     0.06479   0.97056   0.63789   0.01267  Uiso   1.00
O2173  O     0.10212   0.96790   0.33740   0.01267  Uiso   1.00
O2174  O     0.13675   0.98032   0.63289   0.01267  Uiso   1.00
O2175  O     0.12914   0.96877   0.56949   0.01267  Uiso   1.00
O2176  O     0.08676   0.96633   0.58199   0.01267  Uiso   1.00
O2177  O     0.06127   0.91705   0.60008   0.01267  Uiso   1.00
O2178  O     0.14060   0.91983   0.61033   0.01267  Uiso   1.00
O2179  O     0.02304   0.82877   0.53233   0.01267  Uiso   1.00
O2180  O     0.03314   0.89284   0.52604   0.01267  Uiso   1.00
O2181  O     0.03317   0.95881   0.52137   0.01267  Uiso   1.00
O2182  O     0.10535   0.82613   0.54105   0.01267  Uiso   1.00
O2183  O     0.09763   0.88971   0.52762   0.01267  Uiso   1.00
O2184  O     0.10161   0.95522   0.52130   0.01267  Uiso   1.00
O2185  O     0.16780   0.87018   0.59363   0.01267  Uiso   1.00
O2186  O     0.16938   0.96554   0.59170   0.01267  Uiso   1.00
O2187  O     0.21094   0.67230   0.58270   0.01267  Uiso   1.00
O2188  O     0.23203   0.67728   0.52676   0.01267  Uiso   1.00
O2189  O     0.26555   0.67091   0.48494   0.01267  Uiso   1.00
O2190  O     0.29836   0.67555   0.52789   0.01267  Uiso   1.00
O2191  O     0.29563   0.66945   0.59269   0.01267  Uiso   1.00
O2192  O     0.25368   0.66160   0.58099   0.01267  Uiso   1.00
O2193  O     0.21075   0.56225   0.57884   0.01267  Uiso   1.00
O2194  O     0.23163   0.56082   0.52275   0.01267  Uiso   1.00
O2195  O     0.26858   0.56783   0.48887   0.01267  Uiso   1.00
O2196  O     0.30386   0.55878   0.52560   0.01267  Uiso   1.00
O2197  O     0.29594   0.56297   0.58953   0.01267  Uiso   1.00
O2198  O     0.25389   0.57226   0.57743   0.01267  Uiso   1.00
O2199  O     0.22680   0.61794   0.55421   0.01267  Uiso   1.00
O2200  O     0.30554   0.61729   0.55513   0.01267  Uiso   1.00
O2201  O     0.19138   0.70719   0.62916   0.01267  Uiso   1.00
O2202  O     0.19671   0.64287   0.63806   0.01267  Uiso   1.00
O2203  O     0.19776   0.57699   0.63979   0.01267  Uiso   1.00
O2204  O     0.26718   0.70684   0.62437   0.01267  Uiso   1.00
O2205  O     0.27037   0.64279   0.63858   0.01267  Uiso   1.00
O2206  O     0.26875   0.57642   0.63874   0.01267  Uiso   1.00
O2207  O     0.00069   0.66662   0.56527   0.01267  Uiso   1.00
O2208  O     0.00272   0.57178   0.56719   0.01267  Uiso   1.00
O2209  O     0.28896   0.61452   0.41652   0.01267  Uiso   1.00
O2210  O     0.26713   0.60944   0.36103   0.01267  Uiso   1.00
O2211  O     0.23345   0.61205   0.65262   0.01267  Uiso   1.00
O2212  O     0.20001   0.61054   0.36129   0.01267  Uiso   1.00
O2213  O     0.20325   0.61510   0.42594   0.01267  Uiso   1.00
O2214  O     0.24577   0.62219   0.41595   0.01267  Uiso   1.00
O2215  O     0.28870   0.72435   0.41117   0.01267  Uiso   1.00
O2216  O     0.26836   0.72320   0.35440   0.01267  Uiso   1.00
O2217  O     0.23022   0.71773   0.65692   0.01267  Uiso   1.00
O2218  O     0.19409   0.72596   0.35869   0.01267  Uiso   1.00
O2219  O     0.20313   0.72364   0.42268   0.01267  Uiso   1.00
O2220  O     0.24526   0.71721   0.40889   0.01267  Uiso   1.00
O2221  O     0.27132   0.66822   0.38987   0.01267  Uiso   1.00
O2222  O     0.19406   0.66841   0.38985   0.01267  Uiso   1.00
O2223  O     0.30793   0.57955   0.46375   0.01267  Uiso   1.00
O2224  O     0.30388   0.64447   0.47100   0.01267  Uiso   1.00
O2225  O     0.29949   0.71009   0.47316   0.01267  Uiso   1.00
O2226  O     0.23056   0.57831   0.45961   0.01267  Uiso   1.00
O2227  O     0.22766   0.64295   0.47179   0.01267  Uiso   1.00
O2228  O     0.23126   0.70906   0.47053   0.01267  Uiso   1.00
O2229  O     0.16464   0.62040   0.39900   0.01267  Uiso   1.00
O2230  O     0.16288   0.71303   0.40218   0.01267  Uiso   1.00
O2231  O     0.21016   0.86250   0.58305   0.01267  Uiso   1.00
O2232  O     0.22997   0.86150   0.52581   0.01267  Uiso   1.00
O2233  O     0.26583   0.86684   0.48890   0.01267  Uiso   1.00
O2234  O     0.30148   0.85966   0.52578   0.01267  Uiso   1.00
O2235  O     0.29538   0.86465   0.59005   0.01267  Uiso   1.00
O2236  O     0.25311   0.87251   0.57949   0.01267  Uiso   1.00
O2237  O     0.21043   0.97738   0.57534   0.01267  Uiso   1.00
O2238  O     0.23057   0.97023   0.51889   0.01267  Uiso   1.00
O2239  O     0.26898   0.96765   0.48872   0.01267  Uiso   1.00
O2240  O     0.30450   0.97701   0.52475   0.01267  Uiso   1.00
O2241  O     0.29536   0.97304   0.58865   0.01267  Uiso   1.00
O2242  O     0.25352   0.96671   0.57392   0.01267  Uiso   1.00
O2243  O     0.22560   0.91853   0.55862   0.01267  Uiso   1.00
O2244  O     0.30392   0.91861   0.55426   0.01267  Uiso   1.00
O2245  O     0.19061   0.82874   0.63052   0.01267  Uiso   1.00
O2246  O     0.19554   0.89364   0.63729   0.01267  Uiso   1.00
O2247  O     0.20081   0.95919   0.63687   0.01267  Uiso   1.00
O2248  O     0.26746   0.82780   0.62280   0.01267  Uiso   1.00
O2249  O     0.27092   0.89228   0.63594   0.01267  Uiso   1.00
O2250  O     0.26675   0.95840   0.63591   0.01267  Uiso   1.00
O2251  O     0.00130   0.87364   0.56626   0.01267  Uiso   1.00
O2252  O     0.00220   0.96271   0.56761   0.01267  Uiso   1.00
O2253  O     0.28797   0.92292   0.41588   0.01267  Uiso   1.00
O2254  O     0.26861   0.92535   0.35839   0.01267  Uiso   1.00
O2255  O     0.23357   0.91942   0.65334   0.01267  Uiso   1.00
O2256  O     0.19914   0.92698   0.35958   0.01267  Uiso   1.00
O2257  O     0.20352   0.92098   0.42427   0.01267  Uiso   1.00
O2258  O     0.24524   0.91171   0.41147   0.01267  Uiso   1.00
O2259  O     0.28952   0.80971   0.40858   0.01267  Uiso   1.00
O2260  O     0.26819   0.81298   0.35312   0.01267  Uiso   1.00
O2261  O     0.23033   0.81815   0.65489   0.01267  Uiso   1.00
O2262  O     0.19548   0.80933   0.35946   0.01267  Uiso   1.00
O2263  O     0.20420   0.81556   0.42313   0.01267  Uiso   1.00
O2264  O     0.24627   0.81945   0.40882   0.01267  Uiso   1.00
O2265  O     0.27321   0.86725   0.38906   0.01267  Uiso   1.00
O2266  O     0.19336   0.86840   0.38739   0.01267  Uiso   1.00
O2267  O     0.30812   0.95664   0.46256   0.01267  Uiso   1.00
O2268  O     0.30347   0.89163   0.46920   0.01267  Uiso   1.00
O2269  O     0.29778   0.82611   0.47073   0.01267  Uiso   1.00
O2270  O     0.23259   0.95769   0.45487   0.01267  Uiso   1.00
O2271  O     0.22873   0.89368   0.46948   0.01267  Uiso   1.00
O2272  O     0.23287   0.82769   0.47074   0.01267  Uiso   1.00
O2273  O     0.16467   0.91712   0.39873   0.01267  Uiso   1.00
O2274  O     0.16381   0.82183   0.40224   0.01267  Uiso   1.00
O2275  O     0.12320   0.60780   0.41341   0.01267  Uiso   1.00
O2276  O     0.10477   0.61555   0.47145   0.01267  Uiso   1.00
O2277  O     0.06702   0.61618   0.50406   0.01267  Uiso   1.00
O2278  O     0.03137   0.60868   0.46762   0.01267  Uiso   1.00
O2279  O     0.03779   0.61619   0.40340   0.01267  Uiso   1.00
O2280  O     0.07978   0.61441   0.41897   0.01267  Uiso   1.00
O2281  O     0.12174   0.72612   0.41738   0.01267  Uiso   1.00
O2282  O     0.10125   0.71253   0.47271   0.01267  Uiso   1.00
O2283  O     0.06413   0.71837   0.50516   0.01267  Uiso   1.00
O2284  O     0.02930   0.72763   0.46720   0.01267  Uiso   1.00
O2285  O     0.03666   0.72007   0.40313   0.01267  Uiso   1.00
O2286  O     0.07869   0.71522   0.41706   0.01267  Uiso   1.00
O2287  O     0.10635   0.66584   0.42789   0.01267  Uiso   1.00
O2288  O     0.02693   0.66797   0.44068   0.01267  Uiso   1.00
O2289  O     0.14192   0.58009   0.36132   0.01267  Uiso   1.00
O2290  O     0.13318   0.64443   0.36096   0.01267  Uiso   1.00
O2291  O     0.13198   0.71005   0.35566   0.01267  Uiso   1.00
O2292  O     0.06431   0.57670   0.37074   0.01267  Uiso   1.00
O2293  O     0.06716   0.64181   0.36264   0.01267  Uiso   1.00
O2294  O     0.06494   0.70712   0.35504   0.01267  Uiso   1.00
O2295  O     0.33140   0.62014   0.42694   0.01267  Uiso   1.00
O2296  O     0.33005   0.71347   0.42630   0.01267  Uiso   1.00
O2297  O     0.04281   0.67260   0.57826   0.01267  Uiso   1.00
O2298  O     0.06066   0.66730   0.63699   0.01267  Uiso   1.00
O2299  O     0.09925   0.67347   0.66578   0.01267  Uiso   1.00
O2300  O     0.13783   0.67373   0.63652   0.01267  Uiso   1.00
O2301  O     0.12857   0.67276   0.57246   0.01267  Uiso   1.00
O2302  O     0.08620   0.66893   0.58482   0.01267  Uiso   1.00
O2303  O     0.04316   0.55773   0.58470   0.01267  Uiso   1.00
O2304  O     0.06416   0.56810   0.63976   0.01267  Uiso   1.00
O2305  O     0.10186   0.56948   0.33848   0.01267  Uiso   1.00
O2306  O     0.13638   0.55899   0.63336   0.01267  Uiso   1.00
O2307  O     0.12868   0.56309   0.56931   0.01267  Uiso   1.00
O2308  O     0.08665   0.56312   0.58452   0.01267  Uiso   1.00
O2309  O     0.06154   0.61605   0.59495   0.01267  Uiso   1.00
O2310  O     0.13892   0.61713   0.60366   0.01267  Uiso   1.00
O2311  O     0.02478   0.70637   0.52892   0.01267  Uiso   1.00
O2312  O     0.02934   0.64097   0.52409   0.01267  Uiso   1.00
O2313  O     0.03494   0.57547   0.52275   0.01267  Uiso   1.00
O2314  O     0.10121   0.70733   0.53691   0.01267  Uiso   1.00
O2315  O     0.10281   0.64119   0.53093   0.01267  Uiso   1.00
O2316  O     0.09929   0.57614   0.52269   0.01267  Uiso   1.00
O2317  O     0.16889   0.66442   0.59272   0.01267  Uiso   1.00
O2318  O     0.16878   0.57061   0.59123   0.01267  Uiso   1.00
O2319  O     0.14397   0.76772   0.37925   0.01267  Uiso   1.00
O2320  O     0.06436   0.76626   0.38130   0.01267  Uiso   1.00
O2321  O     0.09479   0.76600   0.51001   0.01267  Uiso   1.00
O2322  O     0.03596   0.76833   0.51672   0.01267  Uiso   1.00
O2323  O     0.02221   0.51707   0.54476   0.01267  Uiso   1.00
O2324  O     0.10279   0.51576   0.54578   0.01267  Uiso   1.00
O2325  O     0.07453   0.51841   0.34673   0.01267  Uiso   1.00
O2326  O     0.12889   0.51882   0.35014   0.01267  Uiso   1.00
O2327  O     0.18990   0.51826   0.61580   0.01267  Uiso   1.00
O2328  O     0.26689   0.51810   0.60982   0.01267  Uiso   1.00
O2329  O     0.24137   0.51753   0.47619   0.01267  Uiso   1.00
O2330  O     0.29622   0.51804   0.47606   0.01267  Uiso   1.00
O2331  O     0.30982   0.76781   0.44828   0.01267  Uiso   1.00
O2332  O     0.23126   0.76858   0.44435   0.01267  Uiso   1.00
O2333  O     0.25738   0.76754   0.64231   0.01267  Uiso   1.00
O2334  O     0.20281   0.76784   0.64387   0.01267  Uiso   1.00
H2335  H     0.12022   0.81610   0.54309   0.01267  Uiso   1.00
H2336  H     0.17744   0.76431   0.46343   0.01267  Uiso   1.00
H2337  H     0.15344   0.81753   0.47612   0.01267  Uiso   1.00
H2338  H     0.18900   0.73341   0.51810   0.01267  Uiso   1.00
H2339  H     0.17343   0.76396   0.57080   0.01267  Uiso   1.00
C2340  C     0.17891   0.75567   0.51745   0.01267  Uiso   1.00
C2341  C     0.17106   0.77085   0.54523   0.01267  Uiso   1.00
C2342  C     0.17278   0.77245   0.48796   0.01267  Uiso   1.00
C2343  C     0.16046   0.80027   0.49370   0.01267  Uiso   1.00
S2344  S     0.15682   0.80629   0.53520   0.01267  Uiso   1.00
Si2345 Si    0.47429   0.42298   0.38196   0.01267  Uiso   1.00
Si2346 Si    0.43616   0.40810   0.43028   0.01267  Uiso   1.00
Si2347 Si    0.42594   0.42159   0.50400   0.01267  Uiso   1.00
Si2348 Si    0.37356   0.42434   0.50376   0.01267  Uiso   1.00
Si2349 Si    0.35588   0.40720   0.43297   0.01267  Uiso   1.00
Si2350 Si    0.39492   0.42442   0.38829   0.01267  Uiso   1.00
Si2351 Si    0.47414   0.30650   0.38865   0.01267  Uiso   1.00
Si2352 Si    0.43554   0.32979   0.43393   0.01267  Uiso   1.00
Si2353 Si    0.37173   0.30747   0.50703   0.01267  Uiso   1.00
Si2354 Si    0.35590   0.32808   0.43472   0.01267  Uiso   1.00
Si2355 Si    0.39490   0.30484   0.39178   0.01267  Uiso   1.00
Si2356 Si    0.35836   0.36400   0.55123   0.01267  Uiso   1.00
Si2357 Si    0.39568   0.37694   0.60176   0.01267  Uiso   1.00
Si2358 Si    0.40600   0.36181   0.34203   0.01267  Uiso   1.00
Si2359 Si    0.45873   0.36046   0.33867   0.01267  Uiso   1.00
Si2360 Si    0.47625   0.38055   0.60289   0.01267  Uiso   1.00
Si2361 Si    0.43703   0.36499   0.55705   0.01267  Uiso   1.00
Si2362 Si    0.35848   0.47821   0.55417   0.01267  Uiso   1.00
Si2363 Si    0.39739   0.45703   0.60060   0.01267  Uiso   1.00
Si2364 Si    0.40982   0.47913   0.33922   0.01267  Uiso   1.00
Si2365 Si    0.46073   0.48090   0.33696   0.01267  Uiso   1.00
Si2366 Si    0.47729   0.45876   0.60104   0.01267  Uiso   1.00
Si2367 Si    0.43829   0.47672   0.55472   0.01267  Uiso   1.00
Si2368 Si    0.52545   0.17141   0.61072   0.01267  Uiso   1.00
Si2369 Si    0.56423   0.15709   0.56130   0.01267  Uiso   1.00
Si2370 Si    0.57257   0.17508   0.48842   0.01267  Uiso   1.00
Si2371 Si    0.62513   0.17518   0.48936   0.01267  Uiso   1.00
Si2372 Si    0.64187   0.15709   0.56002   0.01267  Uiso   1.00
Si2373 Si    0.60483   0.17015   0.60926   0.01267  Uiso   1.00
Si2374 Si    0.52514   0.05719   0.60624   0.01267  Uiso   1.00
Si2375 Si    0.56418   0.07839   0.55851   0.01267  Uiso   1.00
Si2376 Si    0.57639   0.05615   0.48701   0.01267  Uiso   1.00
Si2377 Si    0.62748   0.05614   0.48866   0.01267  Uiso   1.00
Si2378 Si    0.64367   0.07794   0.55929   0.01267  Uiso   1.00
Si2379 Si    0.60468   0.05734   0.60376   0.01267  Uiso   1.00
Si2380 Si    0.64115   0.11488   0.44449   0.01267  Uiso   1.00
Si2381 Si    0.60164   0.12873   0.39598   0.01267  Uiso   1.00
Si2382 Si    0.59323   0.11020   0.65606   0.01267  Uiso   1.00
Si2383 Si    0.54042   0.11072   0.65634   0.01267  Uiso   1.00
Si2384 Si    0.52368   0.12868   0.39384   0.01267  Uiso   1.00
Si2385 Si    0.56045   0.11468   0.44332   0.01267  Uiso   1.00
Si2386 Si    0.64041   0.22884   0.43959   0.01267  Uiso   1.00
Si2387 Si    0.60175   0.20814   0.39136   0.01267  Uiso   1.00
Si2388 Si    0.58915   0.22881   0.65302   0.01267  Uiso   1.00
Si2389 Si    0.53803   0.22946   0.65569   0.01267  Uiso   1.00
Si2390 Si    0.52187   0.20759   0.39324   0.01267  Uiso   1.00
Si2391 Si    0.56118   0.22952   0.43649   0.01267  Uiso   1.00
Si2392 Si    0.52473   0.36398   0.61108   0.01267  Uiso   1.00
Si2393 Si    0.56314   0.37890   0.56170   0.01267  Uiso   1.00
Si2394 Si    0.57279   0.36228   0.48858   0.01267  Uiso   1.00
Si2395 Si    0.62540   0.36100   0.48862   0.01267  Uiso   1.00
Si2396 Si    0.64221   0.37918   0.55888   0.01267  Uiso   1.00
Si2397 Si    0.60478   0.36436   0.60717   0.01267  Uiso   1.00
Si2398 Si    0.52600   0.47989   0.60488   0.01267  Uiso   1.00
Si2399 Si    0.56352   0.45812   0.55682   0.01267  Uiso   1.00
Si2400 Si    0.57673   0.47839   0.48489   0.01267  Uiso   1.00
Si2401 Si    0.62779   0.47968   0.48801   0.01267  Uiso   1.00
Si2402 Si    0.64315   0.45764   0.55877   0.01267  Uiso   1.00
Si2403 Si    0.60394   0.47903   0.60206   0.01267  Uiso   1.00
Si2404 Si    0.64067   0.42148   0.44299   0.01267  Uiso   1.00
Si2405 Si    0.60211   0.40665   0.39374   0.01267  Uiso   1.00
Si2406 Si    0.59328   0.42401   0.65409   0.01267  Uiso   1.00
Si2407 Si    0.54069   0.42485   0.65514   0.01267  Uiso   1.00
Si2408 Si    0.56116   0.42099   0.44016   0.01267  Uiso   1.00
Si2409 Si    0.64025   0.30653   0.43855   0.01267  Uiso   1.00
Si2410 Si    0.60254   0.32747   0.39015   0.01267  Uiso   1.00
Si2411 Si    0.58920   0.30655   0.65179   0.01267  Uiso   1.00
Si2412 Si    0.53821   0.30616   0.65569   0.01267  Uiso   1.00
Si2413 Si    0.56205   0.30786   0.43662   0.01267  Uiso   1.00
Si2414 Si    0.47393   0.11342   0.38370   0.01267  Uiso   1.00
Si2415 Si    0.43674   0.12614   0.43308   0.01267  Uiso   1.00
Si2416 Si    0.42668   0.11230   0.50729   0.01267  Uiso   1.00
Si2417 Si    0.37412   0.11041   0.50480   0.01267  Uiso   1.00
Si2418 Si    0.35690   0.12842   0.43482   0.01267  Uiso   1.00
Si2419 Si    0.39571   0.11249   0.38885   0.01267  Uiso   1.00
Si2420 Si    0.47340   0.22907   0.38871   0.01267  Uiso   1.00
Si2421 Si    0.43520   0.20511   0.43393   0.01267  Uiso   1.00
Si2422 Si    0.42361   0.22722   0.50620   0.01267  Uiso   1.00
Si2423 Si    0.37209   0.23032   0.50449   0.01267  Uiso   1.00
Si2424 Si    0.35580   0.20724   0.43448   0.01267  Uiso   1.00
Si2425 Si    0.39456   0.22713   0.38930   0.01267  Uiso   1.00
Si2426 Si    0.35806   0.17162   0.54905   0.01267  Uiso   1.00
Si2427 Si    0.39614   0.15617   0.59878   0.01267  Uiso   1.00
Si2428 Si    0.40637   0.17253   0.33857   0.01267  Uiso   1.00
Si2429 Si    0.45874   0.17523   0.33827   0.01267  Uiso   1.00
Si2430 Si    0.47672   0.15682   0.60134   0.01267  Uiso   1.00
Si2431 Si    0.43774   0.17253   0.55586   0.01267  Uiso   1.00
Si2432 Si    0.35903   0.05568   0.55474   0.01267  Uiso   1.00
Si2433 Si    0.39733   0.07646   0.60089   0.01267  Uiso   1.00
Si2434 Si    0.40960   0.05798   0.34043   0.01267  Uiso   1.00
Si2435 Si    0.46055   0.05698   0.33736   0.01267  Uiso   1.00
Si2436 Si    0.47650   0.07764   0.59948   0.01267  Uiso   1.00
Si2437 Si    0.43762   0.05476   0.55565   0.01267  Uiso   1.00
Si2438 Si    0.52350   0.40816   0.39231   0.01267  Uiso   1.00
Si2439 Si    0.52257   0.32902   0.39298   0.01267  Uiso   1.00
Al2440 Al    0.42333   0.30751   0.50523   0.01267  Uiso   1.00
O2441  O     0.45607   0.42634   0.41081   0.01267  Uiso   1.00
O2442  O     0.43846   0.41609   0.46932   0.01267  Uiso   1.00
O2443  O     0.39984   0.42387   0.49828   0.01267  Uiso   1.00
O2444  O     0.36148   0.42325   0.46852   0.01267  Uiso   1.00
O2445  O     0.37064   0.42396   0.40427   0.01267  Uiso   1.00
O2446  O     0.41288   0.42280   0.41769   0.01267  Uiso   1.00
O2447  O     0.45600   0.31005   0.41728   0.01267  Uiso   1.00
O2448  O     0.43660   0.32633   0.47290   0.01267  Uiso   1.00
O2449  O     0.39662   0.32007   0.50998   0.01267  Uiso   1.00
O2450  O     0.36206   0.31240   0.47002   0.01267  Uiso   1.00
O2451  O     0.37032   0.31059   0.40598   0.01267  Uiso   1.00
O2452  O     0.41259   0.31450   0.41995   0.01267  Uiso   1.00
O2453  O     0.43735   0.36866   0.42247   0.01267  Uiso   1.00
O2454  O     0.36076   0.36770   0.43440   0.01267  Uiso   1.00
O2455  O     0.47521   0.45711   0.36060   0.01267  Uiso   1.00
O2456  O     0.46900   0.39215   0.35759   0.01267  Uiso   1.00
O2457  O     0.46652   0.32606   0.35559   0.01267  Uiso   1.00
O2458  O     0.39760   0.45904   0.36836   0.01267  Uiso   1.00
O2459  O     0.39778   0.39316   0.36360   0.01267  Uiso   1.00
O2460  O     0.39869   0.32720   0.35898   0.01267  Uiso   1.00
O2461  O     0.66378   0.41518   0.42432   0.01267  Uiso   1.00
O2462  O     0.66348   0.32198   0.42665   0.01267  Uiso   1.00
O2463  O     0.37544   0.36110   0.58172   0.01267  Uiso   1.00
O2464  O     0.39481   0.36377   0.63923   0.01267  Uiso   1.00
O2465  O     0.43237   0.36327   0.33816   0.01267  Uiso   1.00
O2466  O     0.46771   0.35975   0.63439   0.01267  Uiso   1.00
O2467  O     0.46132   0.37139   0.57095   0.01267  Uiso   1.00
O2468  O     0.41883   0.36454   0.58553   0.01267  Uiso   1.00
O2469  O     0.37667   0.47433   0.58290   0.01267  Uiso   1.00
O2470  O     0.39813   0.47056   0.63789   0.01267  Uiso   1.00
O2471  O     0.43545   0.46790   0.33740   0.01267  Uiso   1.00
O2472  O     0.47009   0.48032   0.63289   0.01267  Uiso   1.00
O2473  O     0.46247   0.46877   0.56949   0.01267  Uiso   1.00
O2474  O     0.42009   0.46633   0.58199   0.01267  Uiso   1.00
O2475  O     0.39460   0.41705   0.60008   0.01267  Uiso   1.00
O2476  O     0.47393   0.41983   0.61033   0.01267  Uiso   1.00
O2477  O     0.35638   0.32877   0.53233   0.01267  Uiso   1.00
O2478  O     0.36647   0.39284   0.52604   0.01267  Uiso   1.00
O2479  O     0.36651   0.45881   0.52137   0.01267  Uiso   1.00
O2480  O     0.43869   0.32613   0.54105   0.01267  Uiso   1.00
O2481  O     0.43097   0.38971   0.52762   0.01267  Uiso   1.00
O2482  O     0.43494   0.45522   0.52130   0.01267  Uiso   1.00
O2483  O     0.50114   0.37018   0.59363   0.01267  Uiso   1.00
O2484  O     0.50271   0.46554   0.59170   0.01267  Uiso   1.00
O2485  O     0.54427   0.17230   0.58270   0.01267  Uiso   1.00
O2486  O     0.56537   0.17728   0.52676   0.01267  Uiso   1.00
O2487  O     0.59889   0.17091   0.48494   0.01267  Uiso   1.00
O2488  O     0.63169   0.17555   0.52789   0.01267  Uiso   1.00
O2489  O     0.62896   0.16945   0.59269   0.01267  Uiso   1.00
O2490  O     0.58701   0.16160   0.58099   0.01267  Uiso   1.00
O2491  O     0.54408   0.06225   0.57884   0.01267  Uiso   1.00
O2492  O     0.56496   0.06082   0.52275   0.01267  Uiso   1.00
O2493  O     0.60191   0.06783   0.48887   0.01267  Uiso   1.00
O2494  O     0.63719   0.05878   0.52560   0.01267  Uiso   1.00
O2495  O     0.62928   0.06297   0.58953   0.01267  Uiso   1.00
O2496  O     0.58722   0.07226   0.57743   0.01267  Uiso   1.00
O2497  O     0.56013   0.11794   0.55421   0.01267  Uiso   1.00
O2498  O     0.63887   0.11729   0.55513   0.01267  Uiso   1.00
O2499  O     0.52471   0.20719   0.62916   0.01267  Uiso   1.00
O2500  O     0.53004   0.14287   0.63806   0.01267  Uiso   1.00
O2501  O     0.53109   0.07699   0.63979   0.01267  Uiso   1.00
O2502  O     0.60052   0.20684   0.62437   0.01267  Uiso   1.00
O2503  O     0.60370   0.14279   0.63858   0.01267  Uiso   1.00
O2504  O     0.60208   0.07642   0.63874   0.01267  Uiso   1.00
O2505  O     0.33402   0.16662   0.56527   0.01267  Uiso   1.00
O2506  O     0.33605   0.07178   0.56719   0.01267  Uiso   1.00
O2507  O     0.62229   0.11452   0.41652   0.01267  Uiso   1.00
O2508  O     0.60047   0.10944   0.36103   0.01267  Uiso   1.00
O2509  O     0.56678   0.11205   0.65262   0.01267  Uiso   1.00
O2510  O     0.53334   0.11054   0.36129   0.01267  Uiso   1.00
O2511  O     0.53658   0.11510   0.42594   0.01267  Uiso   1.00
O2512  O     0.57910   0.12219   0.41595   0.01267  Uiso   1.00
O2513  O     0.62203   0.22435   0.41117   0.01267  Uiso   1.00
O2514  O     0.60170   0.22320   0.35440   0.01267  Uiso   1.00
O2515  O     0.56356   0.21773   0.65692   0.01267  Uiso   1.00
O2516  O     0.52742   0.22596   0.35869   0.01267  Uiso   1.00
O2517  O     0.53647   0.22364   0.42268   0.01267  Uiso   1.00
O2518  O     0.57859   0.21721   0.40889   0.01267  Uiso   1.00
O2519  O     0.60465   0.16822   0.38987   0.01267  Uiso   1.00
O2520  O     0.52739   0.16841   0.38985   0.01267  Uiso   1.00
O2521  O     0.64127   0.07955   0.46375   0.01267  Uiso   1.00
O2522  O     0.63721   0.14447   0.47100   0.01267  Uiso   1.00
O2523  O     0.63282   0.21009   0.47316   0.01267  Uiso   1.00
O2524  O     0.56390   0.07831   0.45961   0.01267  Uiso   1.00
O2525  O     0.56099   0.14295   0.47179   0.01267  Uiso   1.00
O2526  O     0.56459   0.20906   0.47053   0.01267  Uiso   1.00
O2527  O     0.49797   0.12040   0.39900   0.01267  Uiso   1.00
O2528  O     0.49622   0.21303   0.40218   0.01267  Uiso   1.00
O2529  O     0.54349   0.36250   0.58305   0.01267  Uiso   1.00
O2530  O     0.56331   0.36150   0.52581   0.01267  Uiso   1.00
O2531  O     0.59916   0.36684   0.48890   0.01267  Uiso   1.00
O2532  O     0.63481   0.35966   0.52578   0.01267  Uiso   1.00
O2533  O     0.62871   0.36465   0.59005   0.01267  Uiso   1.00
O2534  O     0.58645   0.37251   0.57949   0.01267  Uiso   1.00
O2535  O     0.54377   0.47738   0.57534   0.01267  Uiso   1.00
O2536  O     0.56390   0.47023   0.51889   0.01267  Uiso   1.00
O2537  O     0.60231   0.46765   0.48872   0.01267  Uiso   1.00
O2538  O     0.63783   0.47701   0.52475   0.01267  Uiso   1.00
O2539  O     0.62869   0.47305   0.58865   0.01267  Uiso   1.00
O2540  O     0.58686   0.46671   0.57392   0.01267  Uiso   1.00
O2541  O     0.55893   0.41853   0.55862   0.01267  Uiso   1.00
O2542  O     0.63725   0.41861   0.55426   0.01267  Uiso   1.00
O2543  O     0.52394   0.32874   0.63052   0.01267  Uiso   1.00
O2544  O     0.52888   0.39364   0.63729   0.01267  Uiso   1.00
O2545  O     0.53414   0.45919   0.63687   0.01267  Uiso   1.00
O2546  O     0.60079   0.32780   0.62280   0.01267  Uiso   1.00
O2547  O     0.60426   0.39228   0.63594   0.01267  Uiso   1.00
O2548  O     0.60008   0.45840   0.63591   0.01267  Uiso   1.00
O2549  O     0.33463   0.37364   0.56626   0.01267  Uiso   1.00
O2550  O     0.33553   0.46271   0.56761   0.01267  Uiso   1.00
O2551  O     0.62130   0.42292   0.41588   0.01267  Uiso   1.00
O2552  O     0.60194   0.42535   0.35839   0.01267  Uiso   1.00
O2553  O     0.56690   0.41942   0.65334   0.01267  Uiso   1.00
O2554  O     0.53247   0.42698   0.35958   0.01267  Uiso   1.00
O2555  O     0.53685   0.42098   0.42427   0.01267  Uiso   1.00
O2556  O     0.57857   0.41171   0.41147   0.01267  Uiso   1.00
O2557  O     0.62285   0.30971   0.40858   0.01267  Uiso   1.00
O2558  O     0.60152   0.31298   0.35312   0.01267  Uiso   1.00
O2559  O     0.56367   0.31815   0.65489   0.01267  Uiso   1.00
O2560  O     0.52881   0.30933   0.35946   0.01267  Uiso   1.00
O2561  O     0.53754   0.31556   0.42313   0.01267  Uiso   1.00
O2562  O     0.57960   0.31945   0.40882   0.01267  Uiso   1.00
O2563  O     0.60654   0.36725   0.38906   0.01267  Uiso   1.00
O2564  O     0.52670   0.36840   0.38739   0.01267  Uiso   1.00
O2565  O     0.64145   0.45664   0.46256   0.01267  Uiso   1.00
O2566  O     0.63680   0.39163   0.46920   0.01267  Uiso   1.00
O2567  O     0.63112   0.32611   0.47073   0.01267  Uiso   1.00
O2568  O     0.56593   0.45769   0.45487   0.01267  Uiso   1.00
O2569  O     0.56206   0.39368   0.46948   0.01267  Uiso   1.00
O2570  O     0.56620   0.32769   0.47074   0.01267  Uiso   1.00
O2571  O     0.49801   0.41712   0.39873   0.01267  Uiso   1.00
O2572  O     0.49714   0.32183   0.40224   0.01267  Uiso   1.00
O2573  O     0.45653   0.10780   0.41341   0.01267  Uiso   1.00
O2574  O     0.43811   0.11555   0.47145   0.01267  Uiso   1.00
O2575  O     0.40035   0.11618   0.50406   0.01267  Uiso   1.00
O2576  O     0.36470   0.10868   0.46762   0.01267  Uiso   1.00
O2577  O     0.37112   0.11619   0.40340   0.01267  Uiso   1.00
O2578  O     0.41311   0.11441   0.41897   0.01267  Uiso   1.00
O2579  O     0.45507   0.22612   0.41738   0.01267  Uiso   1.00
O2580  O     0.43459   0.21253   0.47271   0.01267  Uiso   1.00
O2581  O     0.39747   0.21837   0.50516   0.01267  Uiso   1.00
O2582  O     0.36264   0.22763   0.46720   0.01267  Uiso   1.00
O2583  O     0.37000   0.22007   0.40313   0.01267  Uiso   1.00
O2584  O     0.41203   0.21522   0.41706   0.01267  Uiso   1.00
O2585  O     0.43968   0.16584   0.42789   0.01267  Uiso   1.00
O2586  O     0.36026   0.16797   0.44068   0.01267  Uiso   1.00
O2587  O     0.47525   0.08009   0.36132   0.01267  Uiso   1.00
O2588  O     0.46651   0.14443   0.36096   0.01267  Uiso   1.00
O2589  O     0.46531   0.21005   0.35566   0.01267  Uiso   1.00
O2590  O     0.39764   0.07670   0.37074   0.01267  Uiso   1.00
O2591  O     0.40049   0.14181   0.36264   0.01267  Uiso   1.00
O2592  O     0.39828   0.20712   0.35504   0.01267  Uiso   1.00
O2593  O     0.66474   0.12014   0.42694   0.01267  Uiso   1.00
O2594  O     0.66338   0.21347   0.42630   0.01267  Uiso   1.00
O2595  O     0.37614   0.17260   0.57826   0.01267  Uiso   1.00
O2596  O     0.39399   0.16730   0.63699   0.01267  Uiso   1.00
O2597  O     0.43259   0.17347   0.66578   0.01267  Uiso   1.00
O2598  O     0.47116   0.17373   0.63652   0.01267  Uiso   1.00
O2599  O     0.46190   0.17276   0.57246   0.01267  Uiso   1.00
O2600  O     0.41953   0.16893   0.58482   0.01267  Uiso   1.00
O2601  O     0.37650   0.05773   0.58470   0.01267  Uiso   1.00
O2602  O     0.39750   0.06810   0.63976   0.01267  Uiso   1.00
O2603  O     0.43519   0.06948   0.33848   0.01267  Uiso   1.00
O2604  O     0.46971   0.05899   0.63336   0.01267  Uiso   1.00
O2605  O     0.46202   0.06309   0.56931   0.01267  Uiso   1.00
O2606  O     0.41998   0.06312   0.58452   0.01267  Uiso   1.00
O2607  O     0.39487   0.11605   0.59495   0.01267  Uiso   1.00
O2608  O     0.47226   0.11713   0.60366   0.01267  Uiso   1.00
O2609  O     0.35811   0.20637   0.52892   0.01267  Uiso   1.00
O2610  O     0.36267   0.14097   0.52409   0.01267  Uiso   1.00
O2611  O     0.36827   0.07547   0.52275   0.01267  Uiso   1.00
O2612  O     0.43454   0.20733   0.53691   0.01267  Uiso   1.00
O2613  O     0.43614   0.14119   0.53093   0.01267  Uiso   1.00
O2614  O     0.43262   0.07614   0.52269   0.01267  Uiso   1.00
O2615  O     0.50223   0.16442   0.59272   0.01267  Uiso   1.00
O2616  O     0.50211   0.07061   0.59123   0.01267  Uiso   1.00
O2617  O     0.47730   0.26772   0.37925   0.01267  Uiso   1.00
O2618  O     0.39769   0.26626   0.38130   0.01267  Uiso   1.00
O2619  O     0.42812   0.26600   0.51001   0.01267  Uiso   1.00
O2620  O     0.36929   0.26833   0.51672   0.01267  Uiso   1.00
O2621  O     0.35554   0.01707   0.54476   0.01267  Uiso   1.00
O2622  O     0.43612   0.01576   0.54578   0.01267  Uiso   1.00
O2623  O     0.40786   0.01841   0.34673   0.01267  Uiso   1.00
O2624  O     0.46223   0.01883   0.35014   0.01267  Uiso   1.00
O2625  O     0.52323   0.01826   0.61580   0.01267  Uiso   1.00
O2626  O     0.60022   0.01810   0.60982   0.01267  Uiso   1.00
O2627  O     0.57471   0.01753   0.47619   0.01267  Uiso   1.00
O2628  O     0.62956   0.01804   0.47606   0.01267  Uiso   1.00
O2629  O     0.64315   0.26781   0.44828   0.01267  Uiso   1.00
O2630  O     0.56460   0.26858   0.44435   0.01267  Uiso   1.00
O2631  O     0.59071   0.26754   0.64231   0.01267  Uiso   1.00
O2632  O     0.53614   0.26784   0.64387   0.01267  Uiso   1.00
Si2633 Si    0.47429   0.92298   0.38196   0.01267  Uiso   1.00
Si2634 Si    0.43616   0.90810   0.43028   0.01267  Uiso   1.00
Si2635 Si    0.42594   0.92159   0.50400   0.01267  Uiso   1.00
Si2636 Si    0.37356   0.92434   0.50376   0.01267  Uiso   1.00
Si2637 Si    0.35588   0.90720   0.43297   0.01267  Uiso   1.00
Si2638 Si    0.39492   0.92442   0.38829   0.01267  Uiso   1.00
Si2639 Si    0.47414   0.80650   0.38865   0.01267  Uiso   1.00
Si2640 Si    0.43554   0.82979   0.43393   0.01267  Uiso   1.00
Si2641 Si    0.37173   0.80747   0.50703   0.01267  Uiso   1.00
Si2642 Si    0.35590   0.82808   0.43472   0.01267  Uiso   1.00
Si2643 Si    0.39490   0.80484   0.39178   0.01267  Uiso   1.00
Si2644 Si    0.35836   0.86400   0.55123   0.01267  Uiso   1.00
Si2645 Si    0.39568   0.87694   0.60176   0.01267  Uiso   1.00
Si2646 Si    0.40600   0.86181   0.34203   0.01267  Uiso   1.00
Si2647 Si    0.45873   0.86046   0.33867   0.01267  Uiso   1.00
Si2648 Si    0.47625   0.88055   0.60289   0.01267  Uiso   1.00
Si2649 Si    0.43703   0.86499   0.55705   0.01267  Uiso   1.00
Si2650 Si    0.35848   0.97821   0.55417   0.01267  Uiso   1.00
Si2651 Si    0.39739   0.95703   0.60060   0.01267  Uiso   1.00
Si2652 Si    0.40982   0.97913   0.33922   0.01267  Uiso   1.00
Si2653 Si    0.46073   0.98090   0.33696   0.01267  Uiso   1.00
Si2654 Si    0.47729   0.95876   0.60104   0.01267  Uiso   1.00
Si2655 Si    0.43829   0.97672   0.55472   0.01267  Uiso   1.00
Si2656 Si    0.52545   0.67141   0.61072   0.01267  Uiso   1.00
Si2657 Si    0.56423   0.65709   0.56130   0.01267  Uiso   1.00
Si2658 Si    0.57257   0.67508   0.48842   0.01267  Uiso   1.00
Si2659 Si    0.62513   0.67518   0.48936   0.01267  Uiso   1.00
Si2660 Si    0.64187   0.65709   0.56002   0.01267  Uiso   1.00
Si2661 Si    0.60483   0.67015   0.60926   0.01267  Uiso   1.00
Si2662 Si    0.52514   0.55719   0.60624   0.01267  Uiso   1.00
Si2663 Si    0.56418   0.57839   0.55851   0.01267  Uiso   1.00
Si2664 Si    0.57639   0.55615   0.48701   0.01267  Uiso   1.00
Si2665 Si    0.62748   0.55614   0.48866   0.01267  Uiso   1.00
Si2666 Si    0.64367   0.57794   0.55929   0.01267  Uiso   1.00
Si2667 Si    0.60468   0.55734   0.60376   0.01267  Uiso   1.00
Si2668 Si    0.64115   0.61488   0.44449   0.01267  Uiso   1.00
Si2669 Si    0.60164   0.62873   0.39598   0.01267  Uiso   1.00
Si2670 Si    0.59323   0.61020   0.65606   0.01267  Uiso   1.00
Si2671 Si    0.54042   0.61072   0.65634   0.01267  Uiso   1.00
Si2672 Si    0.52368   0.62868   0.39384   0.01267  Uiso   1.00
Si2673 Si    0.56045   0.61468   0.44332   0.01267  Uiso   1.00
Si2674 Si    0.64041   0.72884   0.43959   0.01267  Uiso   1.00
Si2675 Si    0.60175   0.70814   0.39136   0.01267  Uiso   1.00
Si2676 Si    0.58915   0.72881   0.65302   0.01267  Uiso   1.00
Si2677 Si    0.53803   0.72946   0.65569   0.01267  Uiso   1.00
Si2678 Si    0.52187   0.70759   0.39324   0.01267  Uiso   1.00
Si2679 Si    0.56118   0.72952   0.43649   0.01267  Uiso   1.00
Si2680 Si    0.52473   0.86398   0.61108   0.01267  Uiso   1.00
Si2681 Si    0.56314   0.87890   0.56170   0.01267  Uiso   1.00
Si2682 Si    0.57279   0.86228   0.48858   0.01267  Uiso   1.00
Si2683 Si    0.62540   0.86100   0.48862   0.01267  Uiso   1.00
Si2684 Si    0.64221   0.87918   0.55888   0.01267  Uiso   1.00
Si2685 Si    0.60478   0.86436   0.60717   0.01267  Uiso   1.00
Si2686 Si    0.52600   0.97989   0.60488   0.01267  Uiso   1.00
Si2687 Si    0.56352   0.95812   0.55682   0.01267  Uiso   1.00
Si2688 Si    0.57673   0.97839   0.48489   0.01267  Uiso   1.00
Si2689 Si    0.62779   0.97968   0.48801   0.01267  Uiso   1.00
Si2690 Si    0.64315   0.95764   0.55877   0.01267  Uiso   1.00
Si2691 Si    0.60394   0.97903   0.60206   0.01267  Uiso   1.00
Si2692 Si    0.64067   0.92148   0.44299   0.01267  Uiso   1.00
Si2693 Si    0.60211   0.90665   0.39374   0.01267  Uiso   1.00
Si2694 Si    0.59328   0.92401   0.65409   0.01267  Uiso   1.00
Si2695 Si    0.54069   0.92485   0.65514   0.01267  Uiso   1.00
Si2696 Si    0.56116   0.92099   0.44016   0.01267  Uiso   1.00
Si2697 Si    0.64025   0.80653   0.43855   0.01267  Uiso   1.00
Si2698 Si    0.60254   0.82747   0.39015   0.01267  Uiso   1.00
Si2699 Si    0.58920   0.80655   0.65179   0.01267  Uiso   1.00
Si2700 Si    0.53821   0.80616   0.65569   0.01267  Uiso   1.00
Si2701 Si    0.56205   0.80786   0.43662   0.01267  Uiso   1.00
Si2702 Si    0.47393   0.61342   0.38370   0.01267  Uiso   1.00
Si2703 Si    0.43674   0.62614   0.43308   0.01267  Uiso   1.00
Si2704 Si    0.42668   0.61230   0.50729   0.01267  Uiso   1.00
Si2705 Si    0.37412   0.61041   0.50480   0.01267  Uiso   1.00
Si2706 Si    0.35690   0.62842   0.43482   0.01267  Uiso   1.00
Si2707 Si    0.39571   0.61249   0.38885   0.01267  Uiso   1.00
Si2708 Si    0.47340   0.72907   0.38871   0.01267  Uiso   1.00
Si2709 Si    0.43520   0.70511   0.43393   0.01267  Uiso   1.00
Si2710 Si    0.42361   0.72722   0.50620   0.01267  Uiso   1.00
Si2711 Si    0.37209   0.73032   0.50449   0.01267  Uiso   1.00
Si2712 Si    0.35580   0.70724   0.43448   0.01267  Uiso   1.00
Si2713 Si    0.39456   0.72713   0.38930   0.01267  Uiso   1.00
Si2714 Si    0.35806   0.67162   0.54905   0.01267  Uiso   1.00
Si2715 Si    0.39614   0.65617   0.59878   0.01267  Uiso   1.00
Si2716 Si    0.40637   0.67253   0.33857   0.01267  Uiso   1.00
Si2717 Si    0.45874   0.67523   0.33827   0.01267  Uiso   1.00
Si2718 Si    0.47672   0.65682   0.60134   0.01267  Uiso   1.00
Si2719 Si    0.43774   0.67253   0.55586   0.01267  Uiso   1.00
Si2720 Si    0.35903   0.55568   0.55474   0.01267  Uiso   1.00
Si2721 Si    0.39733   0.57646   0.60089   0.01267  Uiso   1.00
Si2722 Si    0.40960   0.55798   0.34043   0.01267  Uiso   1.00
Si2723 Si    0.46055   0.55698   0.33736   0.01267  Uiso   1.00
Si2724 Si    0.47650   0.57764   0.59948   0.01267  Uiso   1.00
Si2725 Si    0.43762   0.55476   0.55565   0.01267  Uiso   1.00
Si2726 Si    0.52350   0.90816   0.39231   0.01267  Uiso   1.00
Si2727 Si    0.52257   0.82902   0.39298   0.01267  Uiso   1.00
Al2728 Al    0.42333   0.80751   0.50523   0.01267  Uiso   1.00
O2729  O     0.45607   0.92634   0.41081   0.01267  Uiso   1.00
O2730  O     0.43846   0.91609   0.46932   0.01267  Uiso   1.00
O2731  O     0.39984   0.92387   0.49828   0.01267  Uiso   1.00
O2732  O     0.36148   0.92325   0.46852   0.01267  Uiso   1.00
O2733  O     0.37064   0.92396   0.40427   0.01267  Uiso   1.00
O2734  O     0.41288   0.92280   0.41769   0.01267  Uiso   1.00
O2735  O     0.45600   0.81005   0.41728   0.01267  Uiso   1.00
O2736  O     0.43660   0.82633   0.47290   0.01267  Uiso   1.00
O2737  O     0.39662   0.82007   0.50998   0.01267  Uiso   1.00
O2738  O     0.36206   0.81240   0.47002   0.01267  Uiso   1.00
O2739  O     0.37032   0.81059   0.40598   0.01267  Uiso   1.00
O2740  O     0.41259   0.81450   0.41995   0.01267  Uiso   1.00
O2741  O     0.43735   0.86866   0.42247   0.01267  Uiso   1.00
O2742  O     0.36076   0.86770   0.43440   0.01267  Uiso   1.00
O2743  O     0.47521   0.95711   0.36060   0.01267  Uiso   1.00
O2744  O     0.46900   0.89215   0.35759   0.01267  Uiso   1.00
O2745  O     0.46652   0.82606   0.35559   0.01267  Uiso   1.00
O2746  O     0.39760   0.95904   0.36836   0.01267  Uiso   1.00
O2747  O     0.39778   0.89316   0.36360   0.01267  Uiso   1.00
O2748  O     0.39869   0.82720   0.35898   0.01267  Uiso   1.00
O2749  O     0.66378   0.91518   0.42432   0.01267  Uiso   1.00
O2750  O     0.66348   0.82198   0.42665   0.01267  Uiso   1.00
O2751  O     0.37544   0.86110   0.58172   0.01267  Uiso   1.00
O2752  O     0.39481   0.86377   0.63923   0.01267  Uiso   1.00
O2753  O     0.43237   0.86327   0.33816   0.01267  Uiso   1.00
O2754  O     0.46771   0.85975   0.63439   0.01267  Uiso   1.00
O2755  O     0.46132   0.87139   0.57095   0.01267  Uiso   1.00
O2756  O     0.41883   0.86454   0.58553   0.01267  Uiso   1.00
O2757  O     0.37667   0.97433   0.58290   0.01267  Uiso   1.00
O2758  O     0.39813   0.97056   0.63789   0.01267  Uiso   1.00
O2759  O     0.43545   0.96790   0.33740   0.01267  Uiso   1.00
O2760  O     0.47009   0.98032   0.63289   0.01267  Uiso   1.00
O2761  O     0.46247   0.96877   0.56949   0.01267  Uiso   1.00
O2762  O     0.42009   0.96633   0.58199   0.01267  Uiso   1.00
O2763  O     0.39460   0.91705   0.60008   0.01267  Uiso   1.00
O2764  O     0.47393   0.91983   0.61033   0.01267  Uiso   1.00
O2765  O     0.35638   0.82877   0.53233   0.01267  Uiso   1.00
O2766  O     0.36647   0.89284   0.52604   0.01267  Uiso   1.00
O2767  O     0.36651   0.95881   0.52137   0.01267  Uiso   1.00
O2768  O     0.43869   0.82613   0.54105   0.01267  Uiso   1.00
O2769  O     0.43097   0.88971   0.52762   0.01267  Uiso   1.00
O2770  O     0.43494   0.95522   0.52130   0.01267  Uiso   1.00
O2771  O     0.50114   0.87018   0.59363   0.01267  Uiso   1.00
O2772  O     0.50271   0.96554   0.59170   0.01267  Uiso   1.00
O2773  O     0.54427   0.67230   0.58270   0.01267  Uiso   1.00
O2774  O     0.56537   0.67728   0.52676   0.01267  Uiso   1.00
O2775  O     0.59889   0.67091   0.48494   0.01267  Uiso   1.00
O2776  O     0.63169   0.67555   0.52789   0.01267  Uiso   1.00
O2777  O     0.62896   0.66945   0.59269   0.01267  Uiso   1.00
O2778  O     0.58701   0.66160   0.58099   0.01267  Uiso   1.00
O2779  O     0.54408   0.56225   0.57884   0.01267  Uiso   1.00
O2780  O     0.56496   0.56082   0.52275   0.01267  Uiso   1.00
O2781  O     0.60191   0.56783   0.48887   0.01267  Uiso   1.00
O2782  O     0.63719   0.55878   0.52560   0.01267  Uiso   1.00
O2783  O     0.62928   0.56297   0.58953   0.01267  Uiso   1.00
O2784  O     0.58722   0.57226   0.57743   0.01267  Uiso   1.00
O2785  O     0.56013   0.61794   0.55421   0.01267  Uiso   1.00
O2786  O     0.63887   0.61729   0.55513   0.01267  Uiso   1.00
O2787  O     0.52471   0.70719   0.62916   0.01267  Uiso   1.00
O2788  O     0.53004   0.64287   0.63806   0.01267  Uiso   1.00
O2789  O     0.53109   0.57699   0.63979   0.01267  Uiso   1.00
O2790  O     0.60052   0.70684   0.62437   0.01267  Uiso   1.00
O2791  O     0.60370   0.64279   0.63858   0.01267  Uiso   1.00
O2792  O     0.60208   0.57642   0.63874   0.01267  Uiso   1.00
O2793  O     0.33402   0.66662   0.56527   0.01267  Uiso   1.00
O2794  O     0.33605   0.57178   0.56719   0.01267  Uiso   1.00
O2795  O     0.62229   0.61452   0.41652   0.01267  Uiso   1.00
O2796  O     0.60047   0.60944   0.36103   0.01267  Uiso   1.00
O2797  O     0.56678   0.61205   0.65262   0.01267  Uiso   1.00
O2798  O     0.53334   0.61054   0.36129   0.01267  Uiso   1.00
O2799  O     0.53658   0.61510   0.42594   0.01267  Uiso   1.00
O2800  O     0.57910   0.62219   0.41595   0.01267  Uiso   1.00
O2801  O     0.62203   0.72435   0.41117   0.01267  Uiso   1.00
O2802  O     0.60170   0.72320   0.35440   0.01267  Uiso   1.00
O2803  O     0.56356   0.71773   0.65692   0.01267  Uiso   1.00
O2804  O     0.52742   0.72596   0.35869   0.01267  Uiso   1.00
O2805  O     0.53647   0.72364   0.42268   0.01267  Uiso   1.00
O2806  O     0.57859   0.71721   0.40889   0.01267  Uiso   1.00
O2807  O     0.60465   0.66822   0.38987   0.01267  Uiso   1.00
O2808  O     0.52739   0.66841   0.38985   0.01267  Uiso   1.00
O2809  O     0.64127   0.57955   0.46375   0.01267  Uiso   1.00
O2810  O     0.63721   0.64447   0.47100   0.01267  Uiso   1.00
O2811  O     0.63282   0.71009   0.47316   0.01267  Uiso   1.00
O2812  O     0.56390   0.57831   0.45961   0.01267  Uiso   1.00
O2813  O     0.56099   0.64295   0.47179   0.01267  Uiso   1.00
O2814  O     0.56459   0.70906   0.47053   0.01267  Uiso   1.00
O2815  O     0.49797   0.62040   0.39900   0.01267  Uiso   1.00
O2816  O     0.49622   0.71303   0.40218   0.01267  Uiso   1.00
O2817  O     0.54349   0.86250   0.58305   0.01267  Uiso   1.00
O2818  O     0.56331   0.86150   0.52581   0.01267  Uiso   1.00
O2819  O     0.59916   0.86684   0.48890   0.01267  Uiso   1.00
O2820  O     0.63481   0.85966   0.52578   0.01267  Uiso   1.00
O2821  O     0.62871   0.86465   0.59005   0.01267  Uiso   1.00
O2822  O     0.58645   0.87251   0.57949   0.01267  Uiso   1.00
O2823  O     0.54377   0.97738   0.57534   0.01267  Uiso   1.00
O2824  O     0.56390   0.97023   0.51889   0.01267  Uiso   1.00
O2825  O     0.60231   0.96765   0.48872   0.01267  Uiso   1.00
O2826  O     0.63783   0.97701   0.52475   0.01267  Uiso   1.00
O2827  O     0.62869   0.97304   0.58865   0.01267  Uiso   1.00
O2828  O     0.58686   0.96671   0.57392   0.01267  Uiso   1.00
O2829  O     0.55893   0.91853   0.55862   0.01267  Uiso   1.00
O2830  O     0.63725   0.91861   0.55426   0.01267  Uiso   1.00
O2831  O     0.52394   0.82874   0.63052   0.01267  Uiso   1.00
O2832  O     0.52888   0.89364   0.63729   0.01267  Uiso   1.00
O2833  O     0.53414   0.95919   0.63687   0.01267  Uiso   1.00
O2834  O     0.60079   0.82780   0.62280   0.01267  Uiso   1.00
O2835  O     0.60426   0.89228   0.63594   0.01267  Uiso   1.00
O2836  O     0.60008   0.95840   0.63591   0.01267  Uiso   1.00
O2837  O     0.33463   0.87364   0.56626   0.01267  Uiso   1.00
O2838  O     0.33553   0.96271   0.56761   0.01267  Uiso   1.00
O2839  O     0.62130   0.92292   0.41588   0.01267  Uiso   1.00
O2840  O     0.60194   0.92535   0.35839   0.01267  Uiso   1.00
O2841  O     0.56690   0.91942   0.65334   0.01267  Uiso   1.00
O2842  O     0.53247   0.92698   0.35958   0.01267  Uiso   1.00
O2843  O     0.53685   0.92098   0.42427   0.01267  Uiso   1.00
O2844  O     0.57857   0.91171   0.41147   0.01267  Uiso   1.00
O2845  O     0.62285   0.80971   0.40858   0.01267  Uiso   1.00
O2846  O     0.60152   0.81298   0.35312   0.01267  Uiso   1.00
O2847  O     0.56367   0.81815   0.65489   0.01267  Uiso   1.00
O2848  O     0.52881   0.80933   0.35946   0.01267  Uiso   1.00
O2849  O     0.53754   0.81556   0.42313   0.01267  Uiso   1.00
O2850  O     0.57960   0.81945   0.40882   0.01267  Uiso   1.00
O2851  O     0.60654   0.86725   0.38906   0.01267  Uiso   1.00
O2852  O     0.52670   0.86840   0.38739   0.01267  Uiso   1.00
O2853  O     0.64145   0.95664   0.46256   0.01267  Uiso   1.00
O2854  O     0.63680   0.89163   0.46920   0.01267  Uiso   1.00
O2855  O     0.63112   0.82611   0.47073   0.01267  Uiso   1.00
O2856  O     0.56593   0.95769   0.45487   0.01267  Uiso   1.00
O2857  O     0.56206   0.89368   0.46948   0.01267  Uiso   1.00
O2858  O     0.56620   0.82769   0.47074   0.01267  Uiso   1.00
O2859  O     0.49801   0.91712   0.39873   0.01267  Uiso   1.00
O2860  O     0.49714   0.82183   0.40224   0.01267  Uiso   1.00
O2861  O     0.45653   0.60780   0.41341   0.01267  Uiso   1.00
O2862  O     0.43811   0.61555   0.47145   0.01267  Uiso   1.00
O2863  O     0.40035   0.61618   0.50406   0.01267  Uiso   1.00
O2864  O     0.36470   0.60868   0.46762   0.01267  Uiso   1.00
O2865  O     0.37112   0.61619   0.40340   0.01267  Uiso   1.00
O2866  O     0.41311   0.61441   0.41897   0.01267  Uiso   1.00
O2867  O     0.45507   0.72612   0.41738   0.01267  Uiso   1.00
O2868  O     0.43459   0.71253   0.47271   0.01267  Uiso   1.00
O2869  O     0.39747   0.71837   0.50516   0.01267  Uiso   1.00
O2870  O     0.36264   0.72763   0.46720   0.01267  Uiso   1.00
O2871  O     0.37000   0.72007   0.40313   0.01267  Uiso   1.00
O2872  O     0.41203   0.71522   0.41706   0.01267  Uiso   1.00
O2873  O     0.43968   0.66584   0.42789   0.01267  Uiso   1.00
O2874  O     0.36026   0.66797   0.44068   0.01267  Uiso   1.00
O2875  O     0.47525   0.58009   0.36132   0.01267  Uiso   1.00
O2876  O     0.46651   0.64443   0.36096   0.01267  Uiso   1.00
O2877  O     0.46531   0.71005   0.35566   0.01267  Uiso   1.00
O2878  O     0.39764   0.57670   0.37074   0.01267  Uiso   1.00
O2879  O     0.40049   0.64181   0.36264   0.01267  Uiso   1.00
O2880  O     0.39828   0.70712   0.35504   0.01267  Uiso   1.00
O2881  O     0.66474   0.62014   0.42694   0.01267  Uiso   1.00
O2882  O     0.66338   0.71347   0.42630   0.01267  Uiso   1.00
O2883  O     0.37614   0.67260   0.57826   0.01267  Uiso   1.00
O2884  O     0.39399   0.66730   0.63699   0.01267  Uiso   1.00
O2885  O     0.43259   0.67347   0.66578   0.01267  Uiso   1.00
O2886  O     0.47116   0.67373   0.63652   0.01267  Uiso   1.00
O2887  O     0.46190   0.67276   0.57246   0.01267  Uiso   1.00
O2888  O     0.41953   0.66893   0.58482   0.01267  Uiso   1.00
O2889  O     0.37650   0.55773   0.58470   0.01267  Uiso   1.00
O2890  O     0.39750   0.56810   0.63976   0.01267  Uiso   1.00
O2891  O     0.43519   0.56948   0.33848   0.01267  Uiso   1.00
O2892  O     0.46971   0.55899   0.63336   0.01267  Uiso   1.00
O2893  O     0.46202   0.56309   0.56931   0.01267  Uiso   1.00
O2894  O     0.41998   0.56312   0.58452   0.01267  Uiso   1.00
O2895  O     0.39487   0.61605   0.59495   0.01267  Uiso   1.00
O2896  O     0.47226   0.61713   0.60366   0.01267  Uiso   1.00
O2897  O     0.35811   0.70637   0.52892   0.01267  Uiso   1.00
O2898  O     0.36267   0.64097   0.52409   0.01267  Uiso   1.00
O2899  O     0.36827   0.57547   0.52275   0.01267  Uiso   1.00
O2900  O     0.43454   0.70733   0.53691   0.01267  Uiso   1.00
O2901  O     0.43614   0.64119   0.53093   0.01267  Uiso   1.00
O2902  O     0.43262   0.57614   0.52269   0.01267  Uiso   1.00
O2903  O     0.50223   0.66442   0.59272   0.01267  Uiso   1.00
O2904  O     0.50211   0.57061   0.59123   0.01267  Uiso   1.00
O2905  O     0.47730   0.76772   0.37925   0.01267  Uiso   1.00
O2906  O     0.39769   0.76626   0.38130   0.01267  Uiso   1.00
O2907  O     0.42812   0.76600   0.51001   0.01267  Uiso   1.00
O2908  O     0.36929   0.76833   0.51672   0.01267  Uiso   1.00
O2909  O     0.35554   0.51707   0.54476   0.01267  Uiso   1.00
O2910  O     0.43612   0.51576   0.54578   0.01267  Uiso   1.00
O2911  O     0.40786   0.51841   0.34673   0.01267  Uiso   1.00
O2912  O     0.46223   0.51882   0.35014   0.01267  Uiso   1.00
O2913  O     0.52323   0.51826   0.61580   0.01267  Uiso   1.00
O2914  O     0.60022   0.51810   0.60982   0.01267  Uiso   1.00
O2915  O     0.57471   0.51753   0.47619   0.01267  Uiso   1.00
O2916  O     0.62956   0.51804   0.47606   0.01267  Uiso   1.00
O2917  O     0.64315   0.76781   0.44828   0.01267  Uiso   1.00
O2918  O     0.56460   0.76858   0.44435   0.01267  Uiso   1.00
O2919  O     0.59071   0.76754   0.64231   0.01267  Uiso   1.00
O2920  O     0.53614   0.76784   0.64387   0.01267  Uiso   1.00
H2921  H     0.45356   0.81610   0.54309   0.01267  Uiso   1.00
H2922  H     0.51077   0.76431   0.46343   0.01267  Uiso   1.00
H2923  H     0.48677   0.81753   0.47612   0.01267  Uiso   1.00
H2924  H     0.52234   0.73341   0.51810   0.01267  Uiso   1.00
H2925  H     0.50676   0.76396   0.57080   0.01267  Uiso   1.00
C2926  C     0.51224   0.75567   0.51745   0.01267  Uiso   1.00
C2927  C     0.50439   0.77085   0.54523   0.01267  Uiso   1.00
C2928  C     0.50611   0.77245   0.48796   0.01267  Uiso   1.00
C2929  C     0.49379   0.80027   0.49370   0.01267  Uiso   1.00
S2930  S     0.49015   0.80629   0.53520   0.01267  Uiso   1.00
Si2931 Si    0.80762   0.42298   0.38196   0.01267  Uiso   1.00
Si2932 Si    0.76949   0.40810   0.43028   0.01267  Uiso   1.00
Si2933 Si    0.75927   0.42159   0.50400   0.01267  Uiso   1.00
Si2934 Si    0.70690   0.42434   0.50376   0.01267  Uiso   1.00
Si2935 Si    0.68922   0.40720   0.43297   0.01267  Uiso   1.00
Si2936 Si    0.72825   0.42442   0.38829   0.01267  Uiso   1.00
Si2937 Si    0.80747   0.30650   0.38865   0.01267  Uiso   1.00
Si2938 Si    0.76888   0.32979   0.43393   0.01267  Uiso   1.00
Si2939 Si    0.70507   0.30747   0.50703   0.01267  Uiso   1.00
Si2940 Si    0.68923   0.32808   0.43472   0.01267  Uiso   1.00
Si2941 Si    0.72823   0.30484   0.39178   0.01267  Uiso   1.00
Si2942 Si    0.69169   0.36400   0.55123   0.01267  Uiso   1.00
Si2943 Si    0.72901   0.37694   0.60176   0.01267  Uiso   1.00
Si2944 Si    0.73934   0.36181   0.34203   0.01267  Uiso   1.00
Si2945 Si    0.79206   0.36046   0.33867   0.01267  Uiso   1.00
Si2946 Si    0.80959   0.38055   0.60289   0.01267  Uiso   1.00
Si2947 Si    0.77036   0.36499   0.55705   0.01267  Uiso   1.00
Si2948 Si    0.69182   0.47821   0.55417   0.01267  Uiso   1.00
Si2949 Si    0.73073   0.45703   0.60060   0.01267  Uiso   1.00
Si2950 Si    0.74315   0.47913   0.33922   0.01267  Uiso   1.00
Si2951 Si    0.79406   0.48090   0.33696   0.01267  Uiso   1.00
Si2952 Si    0.81062   0.45876   0.60104   0.01267  Uiso   1.00
Si2953 Si    0.77163   0.47672   0.55472   0.01267  Uiso   1.00
Si2954 Si    0.85878   0.17141   0.61072   0.01267  Uiso   1.00
Si2955 Si    0.89756   0.15709   0.56130   0.01267  Uiso   1.00
Si2956 Si    0.90590   0.17508   0.48842   0.01267  Uiso   1.00
Si2957 Si    0.95846   0.17518   0.48936   0.01267  Uiso   1.00
Si2958 Si    0.97520   0.15709   0.56002   0.01267  Uiso   1.00
Si2959 Si    0.93817   0.17015   0.60926   0.01267  Uiso   1.00
Si2960 Si    0.85847   0.05719   0.60624   0.01267  Uiso   1.00
Si2961 Si    0.89751   0.07839   0.55851   0.01267  Uiso   1.00
Si2962 Si    0.90972   0.05615   0.48701   0.01267  Uiso   1.00
Si2963 Si    0.96081   0.05614   0.48866   0.01267  Uiso   1.00
Si2964 Si    0.97700   0.07794   0.55929   0.01267  Uiso   1.00
Si2965 Si    0.93802   0.05734   0.60376   0.01267  Uiso   1.00
Si2966 Si    0.97448   0.11488   0.44449   0.01267  Uiso   1.00
Si2967 Si    0.93497   0.12873   0.39598   0.01267  Uiso   1.00
Si2968 Si    0.92656   0.11020   0.65606   0.01267  Uiso   1.00
Si2969 Si    0.87376   0.11072   0.65634   0.01267  Uiso   1.00
Si2970 Si    0.85701   0.12868   0.39384   0.01267  Uiso   1.00
Si2971 Si    0.89378   0.11468   0.44332   0.01267  Uiso   1.00
Si2972 Si    0.97375   0.22884   0.43959   0.01267  Uiso   1.00
Si2973 Si    0.93508   0.20814   0.39136   0.01267  Uiso   1.00
Si2974 Si    0.92248   0.22881   0.65302   0.01267  Uiso   1.00
Si2975 Si    0.87137   0.22946   0.65569   0.01267  Uiso   1.00
Si2976 Si    0.85521   0.20759   0.39324   0.01267  Uiso   1.00
Si2977 Si    0.89452   0.22952   0.43649   0.01267  Uiso   1.00
Si2978 Si    0.85806   0.36398   0.61108   0.01267  Uiso   1.00
Si2979 Si    0.89647   0.37890   0.56170   0.01267  Uiso   1.00
Si2980 Si    0.90612   0.36228   0.48858   0.01267  Uiso   1.00
Si2981 Si    0.95874   0.36100   0.48862   0.01267  Uiso   1.00
Si2982 Si    0.97555   0.37918   0.55888   0.01267  Uiso   1.00
Si2983 Si    0.93811   0.36436   0.60717   0.01267  Uiso   1.00
Si2984 Si    0.85934   0.47989   0.60488   0.01267  Uiso   1.00
Si2985 Si    0.89685   0.45812   0.55682   0.01267  Uiso   1.00
Si2986 Si    0.91006   0.47839   0.48489   0.01267  Uiso   1.00
Si2987 Si    0.96112   0.47968   0.48801   0.01267  Uiso   1.00
Si2988 Si    0.97649   0.45764   0.55877   0.01267  Uiso   1.00
Si2989 Si    0.93727   0.47903   0.60206   0.01267  Uiso   1.00
Si2990 Si    0.97400   0.42148   0.44299   0.01267  Uiso   1.00
Si2991 Si    0.93544   0.40665   0.39374   0.01267  Uiso   1.00
Si2992 Si    0.92662   0.42401   0.65409   0.01267  Uiso   1.00
Si2993 Si    0.87403   0.42485   0.65514   0.01267  Uiso   1.00
Si2994 Si    0.89449   0.42099   0.44016   0.01267  Uiso   1.00
Si2995 Si    0.97359   0.30653   0.43855   0.01267  Uiso   1.00
Si2996 Si    0.93587   0.32747   0.39015   0.01267  Uiso   1.00
Si2997 Si    0.92253   0.30655   0.65179   0.01267  Uiso   1.00
Si2998 Si    0.87154   0.30616   0.65569   0.01267  Uiso   1.00
Si2999 Si    0.89539   0.30786   0.43662   0.01267  Uiso   1.00
Si3000 Si    0.80727   0.11342   0.38370   0.01267  Uiso   1.00
Si3001 Si    0.77008   0.12614   0.43308   0.01267  Uiso   1.00
Si3002 Si    0.76001   0.11230   0.50729   0.01267  Uiso   1.00
Si3003 Si    0.70745   0.11041   0.50480   0.01267  Uiso   1.00
Si3004 Si    0.69023   0.12842   0.43482   0.01267  Uiso   1.00
Si3005 Si    0.72904   0.11249   0.38885   0.01267  Uiso   1.00
Si3006 Si    0.80673   0.22907   0.38871   0.01267  Uiso   1.00
Si3007 Si    0.76853   0.20511   0.43393   0.01267  Uiso   1.00
Si3008 Si    0.75695   0.22722   0.50620   0.01267  Uiso   1.00
Si3009 Si    0.70543   0.23032   0.50449   0.01267  Uiso   1.00
Si3010 Si    0.68913   0.20724   0.43448   0.01267  Uiso   1.00
Si3011 Si    0.72789   0.22713   0.38930   0.01267  Uiso   1.00
Si3012 Si    0.69139   0.17162   0.54905   0.01267  Uiso   1.00
Si3013 Si    0.72948   0.15617   0.59878   0.01267  Uiso   1.00
Si3014 Si    0.73970   0.17253   0.33857   0.01267  Uiso   1.00
Si3015 Si    0.79207   0.17523   0.33827   0.01267  Uiso   1.00
Si3016 Si    0.81005   0.15682   0.60134   0.01267  Uiso   1.00
Si3017 Si    0.77107   0.17253   0.55586   0.01267  Uiso   1.00
Si3018 Si    0.69236   0.05568   0.55474   0.01267  Uiso   1.00
Si3019 Si    0.73067   0.07646   0.60089   0.01267  Uiso   1.00
Si3020 Si    0.74294   0.05798   0.34043   0.01267  Uiso   1.00
Si3021 Si    0.79389   0.05698   0.33736   0.01267  Uiso   1.00
Si3022 Si    0.80983   0.07764   0.59948   0.01267  Uiso   1.00
Si3023 Si    0.77095   0.05476   0.55565   0.01267  Uiso   1.00
Si3024 Si    0.85683   0.40816   0.39231   0.01267  Uiso   1.00
Si3025 Si    0.85591   0.32902   0.39298   0.01267  Uiso   1.00
Al3026 Al    0.75667   0.30751   0.50523   0.01267  Uiso   1.00
O3027  O     0.78940   0.42634   0.41081   0.01267  Uiso   1.00
O3028  O     0.77179   0.41609   0.46932   0.01267  Uiso   1.00
O3029  O     0.73318   0.42387   0.49828   0.01267  Uiso   1.00
O3030  O     0.69481   0.42325   0.46852   0.01267  Uiso   1.00
O3031  O     0.70397   0.42396   0.40427   0.01267  Uiso   1.00
O3032  O     0.74621   0.42280   0.41769   0.01267  Uiso   1.00
O3033  O     0.78933   0.31005   0.41728   0.01267  Uiso   1.00
O3034  O     0.76993   0.32633   0.47290   0.01267  Uiso   1.00
O3035  O     0.72996   0.32007   0.50998   0.01267  Uiso   1.00
O3036  O     0.69539   0.31240   0.47002   0.01267  Uiso   1.00
O3037  O     0.70365   0.31059   0.40598   0.01267  Uiso   1.00
O3038  O     0.74593   0.31450   0.41995   0.01267  Uiso   1.00
O3039  O     0.77068   0.36866   0.42247   0.01267  Uiso   1.00
O3040  O     0.69409   0.36770   0.43440   0.01267  Uiso   1.00
O3041  O     0.80855   0.45711   0.36060   0.01267  Uiso   1.00
O3042  O     0.80233   0.39215   0.35759   0.01267  Uiso   1.00
O3043  O     0.79986   0.32606   0.35559   0.01267  Uiso   1.00
O3044  O     0.73094   0.45904   0.36836   0.01267  Uiso   1.00
O3045  O     0.73112   0.39316   0.36360   0.01267  Uiso   1.00
O3046  O     0.73202   0.32720   0.35898   0.01267  Uiso   1.00
O3047  O     0.99711   0.41518   0.42432   0.01267  Uiso   1.00
O3048  O     0.99681   0.32198   0.42665   0.01267  Uiso   1.00
O3049  O     0.70878   0.36110   0.58172   0.01267  Uiso   1.00
O3050  O     0.72814   0.36377   0.63923   0.01267  Uiso   1.00
O3051  O     0.76571   0.36327   0.33816   0.01267  Uiso   1.00
O3052  O     0.80104   0.35975   0.63439   0.01267  Uiso   1.00
O3053  O     0.79466   0.37139   0.57095   0.01267  Uiso   1.00
O3054  O     0.75216   0.36454   0.58553   0.01267  Uiso   1.00
O3055  O     0.71000   0.47433   0.58290   0.01267  Uiso   1.00
O3056  O     0.73146   0.47056   0.63789   0.01267  Uiso   1.00
O3057  O     0.76878   0.46790   0.33740   0.01267  Uiso   1.00
O3058  O     0.80342   0.48032   0.63289   0.01267  Uiso   1.00
O3059  O     0.79580   0.46877   0.56949   0.01267  Uiso   1.00
O3060  O     0.75343   0.46633   0.58199   0.01267  Uiso   1.00
O3061  O     0.72793   0.41705   0.60008   0.01267  Uiso   1.00
O3062  O     0.80726   0.41983   0.61033   0.01267  Uiso   1.00
O3063  O     0.68971   0.32877   0.53233   0.01267  Uiso   1.00
O3064  O     0.69981   0.39284   0.52604   0.01267  Uiso   1.00
O3065  O     0.69984   0.45881   0.52137   0.01267  Uiso   1.00
O3066  O     0.77202   0.32613   0.54105   0.01267  Uiso   1.00
O3067  O     0.76430   0.38971   0.52762   0.01267  Uiso   1.00
O3068  O     0.76828   0.45522   0.52130   0.01267  Uiso   1.00
O3069  O     0.83447   0.37018   0.59363   0.01267  Uiso   1.00
O3070  O     0.83605   0.46554   0.59170   0.01267  Uiso   1.00
O3071  O     0.87760   0.17230   0.58270   0.01267  Uiso   1.00
O3072  O     0.89870   0.17728   0.52676   0.01267  Uiso   1.00
O3073  O     0.93222   0.17091   0.48494   0.01267  Uiso   1.00
O3074  O     0.96503   0.17555   0.52789   0.01267  Uiso   1.00
O3075  O     0.96230   0.16945   0.59269   0.01267  Uiso   1.00
O3076  O     0.92035   0.16160   0.58099   0.01267  Uiso   1.00
O3077  O     0.87741   0.06225   0.57884   0.01267  Uiso   1.00
O3078  O     0.89829   0.06082   0.52275   0.01267  Uiso   1.00
O3079  O     0.93525   0.06783   0.48887   0.01267  Uiso   1.00
O3080  O     0.97052   0.05878   0.52560   0.01267  Uiso   1.00
O3081  O     0.96261   0.06297   0.58953   0.01267  Uiso   1.00
O3082  O     0.92056   0.07226   0.57743   0.01267  Uiso   1.00
O3083  O     0.89347   0.11794   0.55421   0.01267  Uiso   1.00
O3084  O     0.97221   0.11729   0.55513   0.01267  Uiso   1.00
O3085  O     0.85805   0.20719   0.62916   0.01267  Uiso   1.00
O3086  O     0.86338   0.14287   0.63806   0.01267  Uiso   1.00
O3087  O     0.86442   0.07699   0.63979   0.01267  Uiso   1.00
O3088  O     0.93385   0.20684   0.62437   0.01267  Uiso   1.00
O3089  O     0.93704   0.14279   0.63858   0.01267  Uiso   1.00
O3090  O     0.93541   0.07642   0.63874   0.01267  Uiso   1.00
O3091  O     0.66736   0.16662   0.56527   0.01267  Uiso   1.00
O3092  O     0.66938   0.07178   0.56719   0.01267  Uiso   1.00
O3093  O     0.95563   0.11452   0.41652   0.01267  Uiso   1.00
O3094  O     0.93380   0.10944   0.36103   0.01267  Uiso   1.00
O3095  O     0.90012   0.11205   0.65262   0.01267  Uiso   1.00
O3096  O     0.86667   0.11054   0.36129   0.01267  Uiso   1.00
O3097  O     0.86992   0.11510   0.42594   0.01267  Uiso   1.00
O3098  O     0.91244   0.12219   0.41595   0.01267  Uiso   1.00
O3099  O     0.95537   0.22435   0.41117   0.01267  Uiso   1.00
O3100  O     0.93503   0.22320   0.35440   0.01267  Uiso   1.00
O3101  O     0.89689   0.21773   0.65692   0.01267  Uiso   1.00
O3102  O     0.86075   0.22596   0.35869   0.01267  Uiso   1.00
O3103  O     0.86980   0.22364   0.42268   0.01267  Uiso   1.00
O3104  O     0.91192   0.21721   0.40889   0.01267  Uiso   1.00
O3105  O     0.93798   0.16822   0.38987   0.01267  Uiso   1.00
O3106  O     0.86073   0.16841   0.38985   0.01267  Uiso   1.00
O3107  O     0.97460   0.07955   0.46375   0.01267  Uiso   1.00
O3108  O     0.97054   0.14447   0.47100   0.01267  Uiso   1.00
O3109  O     0.96616   0.21009   0.47316   0.01267  Uiso   1.00
O3110  O     0.89723   0.07831   0.45961   0.01267  Uiso   1.00
O3111  O     0.89432   0.14295   0.47179   0.01267  Uiso   1.00
O3112  O     0.89792   0.20906   0.47053   0.01267  Uiso   1.00
O3113  O     0.83130   0.12040   0.39900   0.01267  Uiso   1.00
O3114  O     0.82955   0.21303   0.40218   0.01267  Uiso   1.00
O3115  O     0.87683   0.36250   0.58305   0.01267  Uiso   1.00
O3116  O     0.89664   0.36150   0.52581   0.01267  Uiso   1.00
O3117  O     0.93249   0.36684   0.48890   0.01267  Uiso   1.00
O3118  O     0.96814   0.35966   0.52578   0.01267  Uiso   1.00
O3119  O     0.96205   0.36465   0.59005   0.01267  Uiso   1.00
O3120  O     0.91978   0.37251   0.57949   0.01267  Uiso   1.00
O3121  O     0.87710   0.47738   0.57534   0.01267  Uiso   1.00
O3122  O     0.89724   0.47023   0.51889   0.01267  Uiso   1.00
O3123  O     0.93565   0.46765   0.48872   0.01267  Uiso   1.00
O3124  O     0.97117   0.47701   0.52475   0.01267  Uiso   1.00
O3125  O     0.96203   0.47305   0.58865   0.01267  Uiso   1.00
O3126  O     0.92019   0.46671   0.57392   0.01267  Uiso   1.00
O3127  O     0.89227   0.41853   0.55862   0.01267  Uiso   1.00
O3128  O     0.97058   0.41861   0.55426   0.01267  Uiso   1.00
O3129  O     0.85728   0.32874   0.63052   0.01267  Uiso   1.00
O3130  O     0.86221   0.39364   0.63729   0.01267  Uiso   1.00
O3131  O     0.86748   0.45919   0.63687   0.01267  Uiso   1.00
O3132  O     0.93413   0.32780   0.62280   0.01267  Uiso   1.00
O3133  O     0.93759   0.39228   0.63594   0.01267  Uiso   1.00
O3134  O     0.93342   0.45840   0.63591   0.01267  Uiso   1.00
O3135  O     0.66796   0.37364   0.56626   0.01267  Uiso   1.00
O3136  O     0.66887   0.46271   0.56761   0.01267  Uiso   1.00
O3137  O     0.95463   0.42292   0.41588   0.01267  Uiso   1.00
O3138  O     0.93527   0.42535   0.35839   0.01267  Uiso   1.00
O3139  O     0.90023   0.41942   0.65334   0.01267  Uiso   1.00
O3140  O     0.86581   0.42698   0.35958   0.01267  Uiso   1.00
O3141  O     0.87018   0.42098   0.42427   0.01267  Uiso   1.00
O3142  O     0.91191   0.41171   0.41147   0.01267  Uiso   1.00
O3143  O     0.95619   0.30971   0.40858   0.01267  Uiso   1.00
O3144  O     0.93486   0.31298   0.35312   0.01267  Uiso   1.00
O3145  O     0.89700   0.31815   0.65489   0.01267  Uiso   1.00
O3146  O     0.86215   0.30933   0.35946   0.01267  Uiso   1.00
O3147  O     0.87087   0.31556   0.42313   0.01267  Uiso   1.00
O3148  O     0.91293   0.31945   0.40882   0.01267  Uiso   1.00
O3149  O     0.93987   0.36725   0.38906   0.01267  Uiso   1.00
O3150  O     0.86003   0.36840   0.38739   0.01267  Uiso   1.00
O3151  O     0.97478   0.45664   0.46256   0.01267  Uiso   1.00
O3152  O     0.97013   0.39163   0.46920   0.01267  Uiso   1.00
O3153  O     0.96445   0.32611   0.47073   0.01267  Uiso   1.00
O3154  O     0.89926   0.45769   0.45487   0.01267  Uiso   1.00
O3155  O     0.89540   0.39368   0.46948   0.01267  Uiso   1.00
O3156  O     0.89954   0.32769   0.47074   0.01267  Uiso   1.00
O3157  O     0.83134   0.41712   0.39873   0.01267  Uiso   1.00
O3158  O     0.83048   0.32183   0.40224   0.01267  Uiso   1.00
O3159  O     0.78987   0.10780   0.41341   0.01267  Uiso   1.00
O3160  O     0.77144   0.11555   0.47145   0.01267  Uiso   1.00
O3161  O     0.73368   0.11618   0.50406   0.01267  Uiso   1.00
O3162  O     0.69804   0.10868   0.46762   0.01267  Uiso   1.00
O3163  O     0.70446   0.11619   0.40340   0.01267  Uiso   1.00
O3164  O     0.74644   0.11441   0.41897   0.01267  Uiso   1.00
O3165  O     0.78840   0.22612   0.41738   0.01267  Uiso   1.00
O3166  O     0.76792   0.21253   0.47271   0.01267  Uiso   1.00
O3167  O     0.73080   0.21837   0.50516   0.01267  Uiso   1.00
O3168  O     0.69597   0.22763   0.46720   0.01267  Uiso   1.00
O3169  O     0.70333   0.22007   0.40313   0.01267  Uiso   1.00
O3170  O     0.74536   0.21522   0.41706   0.01267  Uiso   1.00
O3171  O     0.77301   0.16584   0.42789   0.01267  Uiso   1.00
O3172  O     0.69360   0.16797   0.44068   0.01267  Uiso   1.00
O3173  O     0.80858   0.08009   0.36132   0.01267  Uiso   1.00
O3174  O     0.79984   0.14443   0.36096   0.01267  Uiso   1.00
O3175  O     0.79864   0.21005   0.35566   0.01267  Uiso   1.00
O3176  O     0.73098   0.07670   0.37074   0.01267  Uiso   1.00
O3177  O     0.73383   0.14181   0.36264   0.01267  Uiso   1.00
O3178  O     0.73161   0.20712   0.35504   0.01267  Uiso   1.00
O3179  O     0.99807   0.12014   0.42694   0.01267  Uiso   1.00
O3180  O     0.99672   0.21347   0.42630   0.01267  Uiso   1.00
O3181  O     0.70948   0.17260   0.57826   0.01267  Uiso   1.00
O3182  O     0.72733   0.16730   0.63699   0.01267  Uiso   1.00
O3183  O     0.76592   0.17347   0.66578   0.01267  Uiso   1.00
O3184  O     0.80449   0.17373   0.63652   0.01267  Uiso   1.00
O3185  O     0.79523   0.17276   0.57246   0.01267  Uiso   1.00
O3186  O     0.75286   0.16893   0.58482   0.01267  Uiso   1.00
O3187  O     0.70983   0.05773   0.58470   0.01267  Uiso   1.00
O3188  O     0.73083   0.06810   0.63976   0.01267  Uiso   1.00
O3189  O     0.76852   0.06948   0.33848   0.01267  Uiso   1.00
O3190  O     0.80304   0.05899   0.63336   0.01267  Uiso   1.00
O3191  O     0.79535   0.06309   0.56931   0.01267  Uiso   1.00
O3192  O     0.75331   0.06312   0.58452   0.01267  Uiso   1.00
O3193  O     0.72821   0.11605   0.59495   0.01267  Uiso   1.00
O3194  O     0.80559   0.11713   0.60366   0.01267  Uiso   1.00
O3195  O     0.69145   0.20637   0.52892   0.01267  Uiso   1.00
O3196  O     0.69600   0.14097   0.52409   0.01267  Uiso   1.00
O3197  O     0.70160   0.07547   0.52275   0.01267  Uiso   1.00
O3198  O     0.76788   0.20733   0.53691   0.01267  Uiso   1.00
O3199  O     0.76947   0.14119   0.53093   0.01267  Uiso   1.00
O3200  O     0.76595   0.07614   0.52269   0.01267  Uiso   1.00
O3201  O     0.83556   0.16442   0.59272   0.01267  Uiso   1.00
O3202  O     0.83545   0.07061   0.59123   0.01267  Uiso   1.00
O3203  O     0.81063   0.26772   0.37925   0.01267  Uiso   1.00
O3204  O     0.73102   0.26626   0.38130   0.01267  Uiso   1.00
O3205  O     0.76146   0.26600   0.51001   0.01267  Uiso   1.00
O3206  O     0.70262   0.26833   0.51672   0.01267  Uiso   1.00
O3207  O     0.68888   0.01707   0.54476   0.01267  Uiso   1.00
O3208  O     0.76946   0.01576   0.54578   0.01267  Uiso   1.00
O3209  O     0.74119   0.01841   0.34673   0.01267  Uiso   1.00
O3210  O     0.79556   0.01883   0.35014   0.01267  Uiso   1.00
O3211  O     0.85657   0.01826   0.61580   0.01267  Uiso   1.00
O3212  O     0.93355   0.01810   0.60982   0.01267  Uiso   1.00
O3213  O     0.90804   0.01753   0.47619   0.01267  Uiso   1.00
O3214  O     0.96289   0.01804   0.47606   0.01267  Uiso   1.00
O3215  O     0.97649   0.26781   0.44828   0.01267  Uiso   1.00
O3216  O     0.89793   0.26858   0.44435   0.01267  Uiso   1.00
O3217  O     0.92404   0.26754   0.64231   0.01267  Uiso   1.00
O3218  O     0.86948   0.26784   0.64387   0.01267  Uiso   1.00
Si3219 Si    0.80762   0.92298   0.38196   0.01267  Uiso   1.00
Si3220 Si    0.76949   0.90810   0.43028   0.01267  Uiso   1.00
Si3221 Si    0.75927   0.92159   0.50400   0.01267  Uiso   1.00
Si3222 Si    0.70690   0.92434   0.50376   0.01267  Uiso   1.00
Si3223 Si    0.68922   0.90720   0.43297   0.01267  Uiso   1.00
Si3224 Si    0.72825   0.92442   0.38829   0.01267  Uiso   1.00
Si3225 Si    0.80747   0.80650   0.38865   0.01267  Uiso   1.00
Si3226 Si    0.76888   0.82979   0.43393   0.01267  Uiso   1.00
Si3227 Si    0.70507   0.80747   0.50703   0.01267  Uiso   1.00
Si3228 Si    0.68923   0.82808   0.43472   0.01267  Uiso   1.00
Si3229 Si    0.72823   0.80484   0.39178   0.01267  Uiso   1.00
Si3230 Si    0.69169   0.86400   0.55123   0.01267  Uiso   1.00
Si3231 Si    0.72901   0.87694   0.60176   0.01267  Uiso   1.00
Si3232 Si    0.73934   0.86181   0.34203   0.01267  Uiso   1.00
Si3233 Si    0.79206   0.86046   0.33867   0.01267  Uiso   1.00
Si3234 Si    0.80959   0.88055   0.60289   0.01267  Uiso   1.00
Si3235 Si    0.77036   0.86499   0.55705   0.01267  Uiso   1.00
Si3236 Si    0.69182   0.97821   0.55417   0.01267  Uiso   1.00
Si3237 Si    0.73073   0.95703   0.60060   0.01267  Uiso   1.00
Si3238 Si    0.74315   0.97913   0.33922   0.01267  Uiso   1.00
Si3239 Si    0.79406   0.98090   0.33696   0.01267  Uiso   1.00
Si3240 Si    0.81062   0.95876   0.60104   0.01267  Uiso   1.00
Si3241 Si    0.77163   0.97672   0.55472   0.01267  Uiso   1.00
Si3242 Si    0.85878   0.67141   0.61072   0.01267  Uiso   1.00
Si3243 Si    0.89756   0.65709   0.56130   0.01267  Uiso   1.00
Si3244 Si    0.90590   0.67508   0.48842   0.01267  Uiso   1.00
Si3245 Si    0.95846   0.67518   0.48936   0.01267  Uiso   1.00
Si3246 Si    0.97520   0.65709   0.56002   0.01267  Uiso   1.00
Si3247 Si    0.93817   0.67015   0.60926   0.01267  Uiso   1.00
Si3248 Si    0.85847   0.55719   0.60624   0.01267  Uiso   1.00
Si3249 Si    0.89751   0.57839   0.55851   0.01267  Uiso   1.00
Si3250 Si    0.90972   0.55615   0.48701   0.01267  Uiso   1.00
Si3251 Si    0.96081   0.55614   0.48866   0.01267  Uiso   1.00
Si3252 Si    0.97700   0.57794   0.55929   0.01267  Uiso   1.00
Si3253 Si    0.93802   0.55734   0.60376   0.01267  Uiso   1.00
Si3254 Si    0.97448   0.61488   0.44449   0.01267  Uiso   1.00
Si3255 Si    0.93497   0.62873   0.39598   0.01267  Uiso   1.00
Si3256 Si    0.92656   0.61020   0.65606   0.01267  Uiso   1.00
Si3257 Si    0.87376   0.61072   0.65634   0.01267  Uiso   1.00
Si3258 Si    0.85701   0.62868   0.39384   0.01267  Uiso   1.00
Si3259 Si    0.89378   0.61468   0.44332   0.01267  Uiso   1.00
Si3260 Si    0.97375   0.72884   0.43959   0.01267  Uiso   1.00
Si3261 Si    0.93508   0.70814   0.39136   0.01267  Uiso   1.00
Si3262 Si    0.92248   0.72881   0.65302   0.01267  Uiso   1.00
Si3263 Si    0.87137   0.72946   0.65569   0.01267  Uiso   1.00
Si3264 Si    0.85521   0.70759   0.39324   0.01267  Uiso   1.00
Si3265 Si    0.89452   0.72952   0.43649   0.01267  Uiso   1.00
Si3266 Si    0.85806   0.86398   0.61108   0.01267  Uiso   1.00
Si3267 Si    0.89647   0.87890   0.56170   0.01267  Uiso   1.00
Si3268 Si    0.90612   0.86228   0.48858   0.01267  Uiso   1.00
Si3269 Si    0.95874   0.86100   0.48862   0.01267  Uiso   1.00
Si3270 Si    0.97555   0.87918   0.55888   0.01267  Uiso   1.00
Si3271 Si    0.93811   0.86436   0.60717   0.01267  Uiso   1.00
Si3272 Si    0.85934   0.97989   0.60488   0.01267  Uiso   1.00
Si3273 Si    0.89685   0.95812   0.55682   0.01267  Uiso   1.00
Si3274 Si    0.91006   0.97839   0.48489   0.01267  Uiso   1.00
Si3275 Si    0.96112   0.97968   0.48801   0.01267  Uiso   1.00
Si3276 Si    0.97649   0.95764   0.55877   0.01267  Uiso   1.00
Si3277 Si    0.93727   0.97903   0.60206   0.01267  Uiso   1.00
Si3278 Si    0.97400   0.92148   0.44299   0.01267  Uiso   1.00
Si3279 Si    0.93544   0.90665   0.39374   0.01267  Uiso   1.00
Si3280 Si    0.92662   0.92401   0.65409   0.01267  Uiso   1.00
Si3281 Si    0.87403   0.92485   0.65514   0.01267  Uiso   1.00
Si3282 Si    0.89449   0.92099   0.44016   0.01267  Uiso   1.00
Si3283 Si    0.97359   0.80653   0.43855   0.01267  Uiso   1.00
Si3284 Si    0.93587   0.82747   0.39015   0.01267  Uiso   1.00
Si3285 Si    0.92253   0.80655   0.65179   0.01267  Uiso   1.00
Si3286 Si    0.87154   0.80616   0.65569   0.01267  Uiso   1.00
Si3287 Si    0.89539   0.80786   0.43662   0.01267  Uiso   1.00
Si3288 Si    0.80727   0.61342   0.38370   0.01267  Uiso   1.00
Si3289 Si    0.77008   0.62614   0.43308   0.01267  Uiso   1.00
Si3290 Si    0.76001   0.61230   0.50729   0.01267  Uiso   1.00
Si3291 Si    0.70745   0.61041   0.50480   0.01267  Uiso   1.00
Si3292 Si    0.69023   0.62842   0.43482   0.01267  Uiso   1.00
Si3293 Si    0.72904   0.61249   0.38885   0.01267  Uiso   1.00
Si3294 Si    0.80673   0.72907   0.38871   0.01267  Uiso   1.00
Si3295 Si    0.76853   0.70511   0.43393   0.01267  Uiso   1.00
Si3296 Si    0.75695   0.72722   0.50620   0.01267  Uiso   1.00
Si3297 Si    0.70543   0.73032   0.50449   0.01267  Uiso   1.00
Si3298 Si    0.68913   0.70724   0.43448   0.01267  Uiso   1.00
Si3299 Si    0.72789   0.72713   0.38930   0.01267  Uiso   1.00
Si3300 Si    0.69139   0.67162   0.54905   0.01267  Uiso   1.00
Si3301 Si    0.72948   0.65617   0.59878   0.01267  Uiso   1.00
Si3302 Si    0.73970   0.67253   0.33857   0.01267  Uiso   1.00
Si3303 Si    0.79207   0.67523   0.33827   0.01267  Uiso   1.00
Si3304 Si    0.81005   0.65682   0.60134   0.01267  Uiso   1.00
Si3305 Si    0.77107   0.67253   0.55586   0.01267  Uiso   1.00
Si3306 Si    0.69236   0.55568   0.55474   0.01267  Uiso   1.00
Si3307 Si    0.73067   0.57646   0.60089   0.01267  Uiso   1.00
Si3308 Si    0.74294   0.55798   0.34043   0.01267  Uiso   1.00
Si3309 Si    0.79389   0.55698   0.33736   0.01267  Uiso   1.00
Si3310 Si    0.80983   0.57764   0.59948   0.01267  Uiso   1.00
Si3311 Si    0.77095   0.55476   0.55565   0.01267  Uiso   1.00
Si3312 Si    0.85683   0.90816   0.39231   0.01267  Uiso   1.00
Si3313 Si    0.85591   0.82902   0.39298   0.01267  Uiso   1.00
Al3314 Al    0.75667   0.80751   0.50523   0.01267  Uiso   1.00
O3315  O     0.78940   0.92634   0.41081   0.01267  Uiso   1.00
O3316  O     0.77179   0.91609   0.46932   0.01267  Uiso   1.00
O3317  O     0.73318   0.92387   0.49828   0.01267  Uiso   1.00
O3318  O     0.69481   0.92325   0.46852   0.01267  Uiso   1.00
O3319  O     0.70397   0.92396   0.40427   0.01267  Uiso   1.00
O3320  O     0.74621   0.92280   0.41769   0.01267  Uiso   1.00
O3321  O     0.78933   0.81005   0.41728   0.01267  Uiso   1.00
O3322  O     0.76993   0.82633   0.47290   0.01267  Uiso   1.00
O3323  O     0.72996   0.82007   0.50998   0.01267  Uiso   1.00
O3324  O     0.69539   0.81240   0.47002   0.01267  Uiso   1.00
O3325  O     0.70365   0.81059   0.40598   0.01267  Uiso   1.00
O3326  O     0.74593   0.81450   0.41995   0.01267  Uiso   1.00
O3327  O     0.77068   0.86866   0.42247   0.01267  Uiso   1.00
O3328  O     0.69409   0.86770   0.43440   0.01267  Uiso   1.00
O3329  O     0.80855   0.95711   0.36060   0.01267  Uiso   1.00
O3330  O     0.80233   0.89215   0.35759   0.01267  Uiso   1.00
O3331  O     0.79986   0.82606   0.35559   0.01267  Uiso   1.00
O3332  O     0.73094   0.95904   0.36836   0.01267  Uiso   1.00
O3333  O     0.73112   0.89316   0.36360   0.01267  Uiso   1.00
O3334  O     0.73202   0.82720   0.35898   0.01267  Uiso   1.00
O3335  O     0.99711   0.91518   0.42432   0.01267  Uiso   1.00
O3336  O     0.99681   0.82198   0.42665   0.01267  Uiso   1.00
O3337  O     0.70878   0.86110   0.58172   0.01267  Uiso   1.00
O3338  O     0.72814   0.86377   0.63923   0.01267  Uiso   1.00
O3339  O     0.76571   0.86327   0.33816   0.01267  Uiso   1.00
O3340  O     0.80104   0.85975   0.63439   0.01267  Uiso   1.00
O3341  O     0.79466   0.87139   0.57095   0.01267  Uiso   1.00
O3342  O     0.75216   0.86454   0.58553   0.01267  Uiso   1.00
O3343  O     0.71000   0.97433   0.58290   0.01267  Uiso   1.00
O3344  O     0.73146   0.97056   0.63789   0.01267  Uiso   1.00
O3345  O     0.76878   0.96790   0.33740   0.01267  Uiso   1.00
O3346  O     0.80342   0.98032   0.63289   0.01267  Uiso   1.00
O3347  O     0.79580   0.96877   0.56949   0.01267  Uiso   1.00
O3348  O     0.75343   0.96633   0.58199   0.01267  Uiso   1.00
O3349  O     0.72793   0.91705   0.60008   0.01267  Uiso   1.00
O3350  O     0.80726   0.91983   0.61033   0.01267  Uiso   1.00
O3351  O     0.68971   0.82877   0.53233   0.01267  Uiso   1.00
O3352  O     0.69981   0.89284   0.52604   0.01267  Uiso   1.00
O3353  O     0.69984   0.95881   0.52137   0.01267  Uiso   1.00
O3354  O     0.77202   0.82613   0.54105   0.01267  Uiso   1.00
O3355  O     0.76430   0.88971   0.52762   0.01267  Uiso   1.00
O3356  O     0.76828   0.95522   0.52130   0.01267  Uiso   1.00
O3357  O     0.83447   0.87018   0.59363   0.01267  Uiso   1.00
O3358  O     0.83605   0.96554   0.59170   0.01267  Uiso   1.00
O3359  O     0.87760   0.67230   0.58270   0.01267  Uiso   1.00
O3360  O     0.89870   0.67728   0.52676   0.01267  Uiso   1.00
O3361  O     0.93222   0.67091   0.48494   0.01267  Uiso   1.00
O3362  O     0.96503   0.67555   0.52789   0.01267  Uiso   1.00
O3363  O     0.96230   0.66945   0.59269   0.01267  Uiso   1.00
O3364  O     0.92035   0.66160   0.58099   0.01267  Uiso   1.00
O3365  O     0.87741   0.56225   0.57884   0.01267  Uiso   1.00
O3366  O     0.89829   0.56082   0.52275   0.01267  Uiso   1.00
O3367  O     0.93525   0.56783   0.48887   0.01267  Uiso   1.00
O3368  O     0.97052   0.55878   0.52560   0.01267  Uiso   1.00
O3369  O     0.96261   0.56297   0.58953   0.01267  Uiso   1.00
O3370  O     0.92056   0.57226   0.57743   0.01267  Uiso   1.00
O3371  O     0.89347   0.61794   0.55421   0.01267  Uiso   1.00
O3372  O     0.97221   0.61729   0.55513   0.01267  Uiso   1.00
O3373  O     0.85805   0.70719   0.62916   0.01267  Uiso   1.00
O3374  O     0.86338   0.64287   0.63806   0.01267  Uiso   1.00
O3375  O     0.86442   0.57699   0.63979   0.01267  Uiso   1.00
O3376  O     0.93385   0.70684   0.62437   0.01267  Uiso   1.00
O3377  O     0.93704   0.64279   0.63858   0.01267  Uiso   1.00
O3378  O     0.93541   0.57642   0.63874   0.01267  Uiso   1.00
O3379  O     0.66736   0.66662   0.56527   0.01267  Uiso   1.00
O3380  O     0.66938   0.57178   0.56719   0.01267  Uiso   1.00
O3381  O     0.95563   0.61452   0.41652   0.01267  Uiso   1.00
O3382  O     0.93380   0.60944   0.36103   0.01267  Uiso   1.00
O3383  O     0.90012   0.61205   0.65262   0.01267  Uiso   1.00
O3384  O     0.86667   0.61054   0.36129   0.01267  Uiso   1.00
O3385  O     0.86992   0.61510   0.42594   0.01267  Uiso   1.00
O3386  O     0.91244   0.62219   0.41595   0.01267  Uiso   1.00
O3387  O     0.95537   0.72435   0.41117   0.01267  Uiso   1.00
O3388  O     0.93503   0.72320   0.35440   0.01267  Uiso   1.00
O3389  O     0.89689   0.71773   0.65692   0.01267  Uiso   1.00
O3390  O     0.86075   0.72596   0.35869   0.01267  Uiso   1.00
O3391  O     0.86980   0.72364   0.42268   0.01267  Uiso   1.00
O3392  O     0.91192   0.71721   0.40889   0.01267  Uiso   1.00
O3393  O     0.93798   0.66822   0.38987   0.01267  Uiso   1.00
O3394  O     0.86073   0.66841   0.38985   0.01267  Uiso   1.00
O3395  O     0.97460   0.57955   0.46375   0.01267  Uiso   1.00
O3396  O     0.97054   0.64447   0.47100   0.01267  Uiso   1.00
O3397  O     0.96616   0.71009   0.47316   0.01267  Uiso   1.00
O3398  O     0.89723   0.57831   0.45961   0.01267  Uiso   1.00
O3399  O     0.89432   0.64295   0.47179   0.01267  Uiso   1.00
O3400  O     0.89792   0.70906   0.47053   0.01267  Uiso   1.00
O3401  O     0.83130   0.62040   0.39900   0.01267  Uiso   1.00
O3402  O     0.82955   0.71303   0.40218   0.01267  Uiso   1.00
O3403  O     0.87683   0.86250   0.58305   0.01267  Uiso   1.00
O3404  O     0.89664   0.86150   0.52581   0.01267  Uiso   1.00
O3405  O     0.93249   0.86684   0.48890   0.01267  Uiso   1.00
O3406  O     0.96814   0.85966   0.52578   0.01267  Uiso   1.00
O3407  O     0.96205   0.86465   0.59005   0.01267  Uiso   1.00
O3408  O     0.91978   0.87251   0.57949   0.01267  Uiso   1.00
O3409  O     0.87710   0.97738   0.57534   0.01267  Uiso   1.00
O3410  O     0.89724   0.97023   0.51889   0.01267  Uiso   1.00
O3411  O     0.93565   0.96765   0.48872   0.01267  Uiso   1.00
O3412  O     0.97117   0.97701   0.52475   0.01267  Uiso   1.00
O3413  O     0.96203   0.97304   0.58865   0.01267  Uiso   1.00
O3414  O     0.92019   0.96671   0.57392   0.01267  Uiso   1.00
O3415  O     0.89227   0.91853   0.55862   0.01267  Uiso   1.00
O3416  O     0.97058   0.91861   0.55426   0.01267  Uiso   1.00
O3417  O     0.85728   0.82874   0.63052   0.01267  Uiso   1.00
O3418  O     0.86221   0.89364   0.63729   0.01267  Uiso   1.00
O3419  O     0.86748   0.95919   0.63687   0.01267  Uiso   1.00
O3420  O     0.93413   0.82780   0.62280   0.01267  Uiso   1.00
O3421  O     0.93759   0.89228   0.63594   0.01267  Uiso   1.00
O3422  O     0.93342   0.95840   0.63591   0.01267  Uiso   1.00
O3423  O     0.66796   0.87364   0.56626   0.01267  Uiso   1.00
O3424  O     0.66887   0.96271   0.56761   0.01267  Uiso   1.00
O3425  O     0.95463   0.92292   0.41588   0.01267  Uiso   1.00
O3426  O     0.93527   0.92535   0.35839   0.01267  Uiso   1.00
O3427  O     0.90023   0.91942   0.65334   0.01267  Uiso   1.00
O3428  O     0.86581   0.92698   0.35958   0.01267  Uiso   1.00
O3429  O     0.87018   0.92098   0.42427   0.01267  Uiso   1.00
O3430  O     0.91191   0.91171   0.41147   0.01267  Uiso   1.00
O3431  O     0.95619   0.80971   0.40858   0.01267  Uiso   1.00
O3432  O     0.93486   0.81298   0.35312   0.01267  Uiso   1.00
O3433  O     0.89700   0.81815   0.65489   0.01267  Uiso   1.00
O3434  O     0.86215   0.80933   0.35946   0.01267  Uiso   1.00
O3435  O     0.87087   0.81556   0.42313   0.01267  Uiso   1.00
O3436  O     0.91293   0.81945   0.40882   0.01267  Uiso   1.00
O3437  O     0.93987   0.86725   0.38906   0.01267  Uiso   1.00
O3438  O     0.86003   0.86840   0.38739   0.01267  Uiso   1.00
O3439  O     0.97478   0.95664   0.46256   0.01267  Uiso   1.00
O3440  O     0.97013   0.89163   0.46920   0.01267  Uiso   1.00
O3441  O     0.96445   0.82611   0.47073   0.01267  Uiso   1.00
O3442  O     0.89926   0.95769   0.45487   0.01267  Uiso   1.00
O3443  O     0.89540   0.89368   0.46948   0.01267  Uiso   1.00
O3444  O     0.89954   0.82769   0.47074   0.01267  Uiso   1.00
O3445  O     0.83134   0.91712   0.39873   0.01267  Uiso   1.00
O3446  O     0.83048   0.82183   0.40224   0.01267  Uiso   1.00
O3447  O     0.78987   0.60780   0.41341   0.01267  Uiso   1.00
O3448  O     0.77144   0.61555   0.47145   0.01267  Uiso   1.00
O3449  O     0.73368   0.61618   0.50406   0.01267  Uiso   1.00
O3450  O     0.69804   0.60868   0.46762   0.01267  Uiso   1.00
O3451  O     0.70446   0.61619   0.40340   0.01267  Uiso   1.00
O3452  O     0.74644   0.61441   0.41897   0.01267  Uiso   1.00
O3453  O     0.78840   0.72612   0.41738   0.01267  Uiso   1.00
O3454  O     0.76792   0.71253   0.47271   0.01267  Uiso   1.00
O3455  O     0.73080   0.71837   0.50516   0.01267  Uiso   1.00
O3456  O     0.69597   0.72763   0.46720   0.01267  Uiso   1.00
O3457  O     0.70333   0.72007   0.40313   0.01267  Uiso   1.00
O3458  O     0.74536   0.71522   0.41706   0.01267  Uiso   1.00
O3459  O     0.77301   0.66584   0.42789   0.01267  Uiso   1.00
O3460  O     0.69360   0.66797   0.44068   0.01267  Uiso   1.00
O3461  O     0.80858   0.58009   0.36132   0.01267  Uiso   1.00
O3462  O     0.79984   0.64443   0.36096   0.01267  Uiso   1.00
O3463  O     0.79864   0.71005   0.35566   0.01267  Uiso   1.00
O3464  O     0.73098   0.57670   0.37074   0.01267  Uiso   1.00
O3465  O     0.73383   0.64181   0.36264   0.01267  Uiso   1.00
O3466  O     0.73161   0.70712   0.35504   0.01267  Uiso   1.00
O3467  O     0.99807   0.62014   0.42694   0.01267  Uiso   1.00
O3468  O     0.99672   0.71347   0.42630   0.01267  Uiso   1.00
O3469  O     0.70948   0.67260   0.57826   0.01267  Uiso   1.00
O3470  O     0.72733   0.66730   0.63699   0.01267  Uiso   1.00
O3471  O     0.76592   0.67347   0.66578   0.01267  Uiso   1.00
O3472  O     0.80449   0.67373   0.63652   0.01267  Uiso   1.00
O3473  O     0.79523   0.67276   0.57246   0.01267  Uiso   1.00
O3474  O     0.75286   0.66893   0.58482   0.01267  Uiso   1.00
O3475  O     0.70983   0.55773   0.58470   0.01267  Uiso   1.00
O3476  O     0.73083   0.56810   0.63976   0.01267  Uiso   1.00
O3477  O     0.76852   0.56948   0.33848   0.01267  Uiso   1.00
O3478  O     0.80304   0.55899   0.63336   0.01267  Uiso   1.00
O3479  O     0.79535   0.56309   0.56931   0.01267  Uiso   1.00
O3480  O     0.75331   0.56312   0.58452   0.01267  Uiso   1.00
O3481  O     0.72821   0.61605   0.59495   0.01267  Uiso   1.00
O3482  O     0.80559   0.61713   0.60366   0.01267  Uiso   1.00
O3483  O     0.69145   0.70637   0.52892   0.01267  Uiso   1.00
O3484  O     0.69600   0.64097   0.52409   0.01267  Uiso   1.00
O3485  O     0.70160   0.57547   0.52275   0.01267  Uiso   1.00
O3486  O     0.76788   0.70733   0.53691   0.01267  Uiso   1.00
O3487  O     0.76947   0.64119   0.53093   0.01267  Uiso   1.00
O3488  O     0.76595   0.57614   0.52269   0.01267  Uiso   1.00
O3489  O     0.83556   0.66442   0.59272   0.01267  Uiso   1.00
O3490  O     0.83545   0.57061   0.59123   0.01267  Uiso   1.00
O3491  O     0.81063   0.76772   0.37925   0.01267  Uiso   1.00
O3492  O     0.73102   0.76626   0.38130   0.01267  Uiso   1.00
O3493  O     0.76146   0.76600   0.51001   0.01267  Uiso   1.00
O3494  O     0.70262   0.76833   0.51672   0.01267  Uiso   1.00
O3495  O     0.68888   0.51707   0.54476   0.01267  Uiso   1.00
O3496  O     0.76946   0.51576   0.54578   0.01267  Uiso   1.00
O3497  O     0.74119   0.51841   0.34673   0.01267  Uiso   1.00
O3498  O     0.79556   0.51882   0.35014   0.01267  Uiso   1.00
O3499  O     0.85657   0.51826   0.61580   0.01267  Uiso   1.00
O3500  O     0.93355   0.51810   0.60982   0.01267  Uiso   1.00
O3501  O     0.90804   0.51753   0.47619   0.01267  Uiso   1.00
O3502  O     0.96289   0.51804   0.47606   0.01267  Uiso   1.00
O3503  O     0.97649   0.76781   0.44828   0.01267  Uiso   1.00
O3504  O     0.89793   0.76858   0.44435   0.01267  Uiso   1.00
O3505  O     0.92404   0.76754   0.64231   0.01267  Uiso   1.00
O3506  O     0.86948   0.76784   0.64387   0.01267  Uiso   1.00
H3507  H     0.78689   0.81610   0.54309   0.01267  Uiso   1.00
H3508  H     0.84410   0.76431   0.46343   0.01267  Uiso   1.00
H3509  H     0.82011   0.81753   0.47612   0.01267  Uiso   1.00
H3510  H     0.85567   0.73341   0.51810   0.01267  Uiso   1.00
H3511  H     0.84010   0.76396   0.57080   0.01267  Uiso   1.00
C3512  C     0.84557   0.75567   0.51745   0.01267  Uiso   1.00
C3513  C     0.83773   0.77085   0.54523   0.01267  Uiso   1.00
C3514  C     0.83944   0.77245   0.48796   0.01267  Uiso   1.00
C3515  C     0.82712   0.80027   0.49370   0.01267  Uiso   1.00
S3516  S     0.82348   0.80629   0.53520   0.01267  Uiso   1.00
Si3517 Si    0.14096   0.42298   0.71529   0.01267  Uiso   1.00
Si3518 Si    0.10282   0.40810   0.76362   0.01267  Uiso   1.00
Si3519 Si    0.09260   0.42159   0.83733   0.01267  Uiso   1.00
Si3520 Si    0.04023   0.42434   0.83709   0.01267  Uiso   1.00
Si3521 Si    0.02255   0.40720   0.76630   0.01267  Uiso   1.00
Si3522 Si    0.06158   0.42442   0.72162   0.01267  Uiso   1.00
Si3523 Si    0.14080   0.30650   0.72198   0.01267  Uiso   1.00
Si3524 Si    0.10221   0.32979   0.76726   0.01267  Uiso   1.00
Si3525 Si    0.03840   0.30747   0.84037   0.01267  Uiso   1.00
Si3526 Si    0.02257   0.32808   0.76805   0.01267  Uiso   1.00
Si3527 Si    0.06157   0.30484   0.72511   0.01267  Uiso   1.00
Si3528 Si    0.02503   0.36400   0.88456   0.01267  Uiso   1.00
Si3529 Si    0.06234   0.37694   0.93510   0.01267  Uiso   1.00
Si3530 Si    0.07267   0.36181   0.67537   0.01267  Uiso   1.00
Si3531 Si    0.12539   0.36046   0.67200   0.01267  Uiso   1.00
Si3532 Si    0.14292   0.38055   0.93622   0.01267  Uiso   1.00
Si3533 Si    0.10369   0.36499   0.89039   0.01267  Uiso   1.00
Si3534 Si    0.02515   0.47821   0.88750   0.01267  Uiso   1.00
Si3535 Si    0.06406   0.45703   0.93393   0.01267  Uiso   1.00
Si3536 Si    0.07649   0.47913   0.67256   0.01267  Uiso   1.00
Si3537 Si    0.12739   0.48090   0.67029   0.01267  Uiso   1.00
Si3538 Si    0.14395   0.45876   0.93437   0.01267  Uiso   1.00
Si3539 Si    0.10496   0.47672   0.88806   0.01267  Uiso   1.00
Si3540 Si    0.19211   0.17141   0.94405   0.01267  Uiso   1.00
Si3541 Si    0.23089   0.15709   0.89463   0.01267  Uiso   1.00
Si3542 Si    0.23924   0.17508   0.82175   0.01267  Uiso   1.00
Si3543 Si    0.29180   0.17518   0.82269   0.01267  Uiso   1.00
Si3544 Si    0.30853   0.15709   0.89336   0.01267  Uiso   1.00
Si3545 Si    0.27150   0.17015   0.94259   0.01267  Uiso   1.00
Si3546 Si    0.19181   0.05719   0.93957   0.01267  Uiso   1.00
Si3547 Si    0.23084   0.07839   0.89185   0.01267  Uiso   1.00
Si3548 Si    0.24306   0.05615   0.82034   0.01267  Uiso   1.00
Si3549 Si    0.29414   0.05614   0.82200   0.01267  Uiso   1.00
Si3550 Si    0.31033   0.07794   0.89263   0.01267  Uiso   1.00
Si3551 Si    0.27135   0.05734   0.93709   0.01267  Uiso   1.00
Si3552 Si    0.30781   0.11488   0.77782   0.01267  Uiso   1.00
Si3553 Si    0.26831   0.12873   0.72932   0.01267  Uiso   1.00
Si3554 Si    0.25989   0.11020   0.98939   0.01267  Uiso   1.00
Si3555 Si    0.20709   0.11072   0.98967   0.01267  Uiso   1.00
Si3556 Si    0.19034   0.12868   0.72717   0.01267  Uiso   1.00
Si3557 Si    0.22712   0.11468   0.77666   0.01267  Uiso   1.00
Si3558 Si    0.30708   0.22884   0.77292   0.01267  Uiso   1.00
Si3559 Si    0.26842   0.20814   0.72470   0.01267  Uiso   1.00
Si3560 Si    0.25582   0.22881   0.98635   0.01267  Uiso   1.00
Si3561 Si    0.20470   0.22946   0.98902   0.01267  Uiso   1.00
Si3562 Si    0.18854   0.20759   0.72657   0.01267  Uiso   1.00
Si3563 Si    0.22785   0.22952   0.76982   0.01267  Uiso   1.00
Si3564 Si    0.19139   0.36398   0.94442   0.01267  Uiso   1.00
Si3565 Si    0.22981   0.37890   0.89504   0.01267  Uiso   1.00
Si3566 Si    0.23945   0.36228   0.82192   0.01267  Uiso   1.00
Si3567 Si    0.29207   0.36100   0.82195   0.01267  Uiso   1.00
Si3568 Si    0.30888   0.37918   0.89221   0.01267  Uiso   1.00
Si3569 Si    0.27145   0.36436   0.94050   0.01267  Uiso   1.00
Si3570 Si    0.19267   0.47989   0.93821   0.01267  Uiso   1.00
Si3571 Si    0.23018   0.45812   0.89015   0.01267  Uiso   1.00
Si3572 Si    0.24340   0.47839   0.81822   0.01267  Uiso   1.00
Si3573 Si    0.29445   0.47968   0.82134   0.01267  Uiso   1.00
Si3574 Si    0.30982   0.45764   0.89211   0.01267  Uiso   1.00
Si3575 Si    0.27061   0.47903   0.93540   0.01267  Uiso   1.00
Si3576 Si    0.30734   0.42148   0.77633   0.01267  Uiso   1.00
Si3577 Si    0.26878   0.40665   0.72707   0.01267  Uiso   1.00
Si3578 Si    0.25995   0.42401   0.98742   0.01267  Uiso   1.00
Si3579 Si    0.20736   0.42485   0.98847   0.01267  Uiso   1.00
Si3580 Si    0.22783   0.42099   0.77350   0.01267  Uiso   1.00
Si3581 Si    0.30692   0.30653   0.77189   0.01267  Uiso   1.00
Si3582 Si    0.26921   0.32747   0.72348   0.01267  Uiso   1.00
Si3583 Si    0.25586   0.30655   0.98512   0.01267  Uiso   1.00
Si3584 Si    0.20488   0.30616   0.98902   0.01267  Uiso   1.00
Si3585 Si    0.22872   0.30786   0.76995   0.01267  Uiso   1.00
Si3586 Si    0.14060   0.11342   0.71703   0.01267  Uiso   1.00
Si3587 Si    0.10341   0.12614   0.76641   0.01267  Uiso   1.00
Si3588 Si    0.09335   0.11230   0.84062   0.01267  Uiso   1.00
Si3589 Si    0.04078   0.11041   0.83813   0.01267  Uiso   1.00
Si3590 Si    0.02356   0.12842   0.76815   0.01267  Uiso   1.00
Si3591 Si    0.06237   0.11249   0.72218   0.01267  Uiso   1.00
Si3592 Si    0.14007   0.22907   0.72205   0.01267  Uiso   1.00
Si3593 Si    0.10187   0.20511   0.76726   0.01267  Uiso   1.00
Si3594 Si    0.09028   0.22722   0.83953   0.01267  Uiso   1.00
Si3595 Si    0.03876   0.23032   0.83783   0.01267  Uiso   1.00
Si3596 Si    0.02246   0.20724   0.76782   0.01267  Uiso   1.00
Si3597 Si    0.06123   0.22713   0.72263   0.01267  Uiso   1.00
Si3598 Si    0.02472   0.17162   0.88239   0.01267  Uiso   1.00
Si3599 Si    0.06281   0.15617   0.93211   0.01267  Uiso   1.00
Si3600 Si    0.07303   0.17253   0.67191   0.01267  Uiso   1.00
Si3601 Si    0.12541   0.17523   0.67160   0.01267  Uiso   1.00
Si3602 Si    0.14338   0.15682   0.93468   0.01267  Uiso   1.00
Si3603 Si    0.10440   0.17253   0.88919   0.01267  Uiso   1.00
Si3604 Si    0.02570   0.05568   0.88807   0.01267  Uiso   1.00
Si3605 Si    0.06400   0.07646   0.93422   0.01267  Uiso   1.00
Si3606 Si    0.07627   0.05798   0.67376   0.01267  Uiso   1.00
Si3607 Si    0.12722   0.05698   0.67070   0.01267  Uiso   1.00
Si3608 Si    0.14317   0.07764   0.93282   0.01267  Uiso   1.00
Si3609 Si    0.10428   0.05476   0.88899   0.01267  Uiso   1.00
Si3610 Si    0.19016   0.40816   0.72564   0.01267  Uiso   1.00
Si3611 Si    0.18924   0.32902   0.72631   0.01267  Uiso   1.00
Al3612 Al    0.09000   0.30751   0.83856   0.01267  Uiso   1.00
O3613  O     0.12274   0.42634   0.74414   0.01267  Uiso   1.00
O3614  O     0.10513   0.41609   0.80265   0.01267  Uiso   1.00
O3615  O     0.06651   0.42387   0.83161   0.01267  Uiso   1.00
O3616  O     0.02815   0.42325   0.80185   0.01267  Uiso   1.00
O3617  O     0.03730   0.42396   0.73760   0.01267  Uiso   1.00
O3618  O     0.07954   0.42280   0.75103   0.01267  Uiso   1.00
O3619  O     0.12267   0.31005   0.75061   0.01267  Uiso   1.00
O3620  O     0.10326   0.32633   0.80624   0.01267  Uiso   1.00
O3621  O     0.06329   0.32007   0.84331   0.01267  Uiso   1.00
O3622  O     0.02873   0.31240   0.80335   0.01267  Uiso   1.00
O3623  O     0.03699   0.31059   0.73931   0.01267  Uiso   1.00
O3624  O     0.07926   0.31450   0.75329   0.01267  Uiso   1.00
O3625  O     0.10402   0.36866   0.75581   0.01267  Uiso   1.00
O3626  O     0.02742   0.36770   0.76773   0.01267  Uiso   1.00
O3627  O     0.14188   0.45711   0.69393   0.01267  Uiso   1.00
O3628  O     0.13567   0.39215   0.69092   0.01267  Uiso   1.00
O3629  O     0.13319   0.32606   0.68892   0.01267  Uiso   1.00
O3630  O     0.06427   0.45904   0.70169   0.01267  Uiso   1.00
O3631  O     0.06445   0.39316   0.69693   0.01267  Uiso   1.00
O3632  O     0.06536   0.32720   0.69232   0.01267  Uiso   1.00
O3633  O     0.33044   0.41518   0.75765   0.01267  Uiso   1.00
O3634  O     0.33015   0.32198   0.75999   0.01267  Uiso   1.00
O3635  O     0.04211   0.36110   0.91505   0.01267  Uiso   1.00
O3636  O     0.06147   0.36377   0.97257   0.01267  Uiso   1.00
O3637  O     0.09904   0.36327   0.67149   0.01267  Uiso   1.00
O3638  O     0.13438   0.35975   0.96773   0.01267  Uiso   1.00
O3639  O     0.12799   0.37139   0.90428   0.01267  Uiso   1.00
O3640  O     0.08549   0.36454   0.91886   0.01267  Uiso   1.00
O3641  O     0.04333   0.47433   0.91623   0.01267  Uiso   1.00
O3642  O     0.06479   0.47056   0.97122   0.01267  Uiso   1.00
O3643  O     0.10212   0.46790   0.67074   0.01267  Uiso   1.00
O3644  O     0.13675   0.48032   0.96622   0.01267  Uiso   1.00
O3645  O     0.12914   0.46877   0.90282   0.01267  Uiso   1.00
O3646  O     0.08676   0.46633   0.91532   0.01267  Uiso   1.00
O3647  O     0.06127   0.41705   0.93342   0.01267  Uiso   1.00
O3648  O     0.14060   0.41983   0.94366   0.01267  Uiso   1.00
O3649  O     0.02304   0.32877   0.86566   0.01267  Uiso   1.00
O3650  O     0.03314   0.39284   0.85937   0.01267  Uiso   1.00
O3651  O     0.03317   0.45881   0.85470   0.01267  Uiso   1.00
O3652  O     0.10535   0.32613   0.87438   0.01267  Uiso   1.00
O3653  O     0.09763   0.38971   0.86096   0.01267  Uiso   1.00
O3654  O     0.10161   0.45522   0.85463   0.01267  Uiso   1.00
O3655  O     0.16780   0.37018   0.92696   0.01267  Uiso   1.00
O3656  O     0.16938   0.46554   0.92503   0.01267  Uiso   1.00
O3657  O     0.21094   0.17230   0.91604   0.01267  Uiso   1.00
O3658  O     0.23203   0.17728   0.86009   0.01267  Uiso   1.00
O3659  O     0.26555   0.17091   0.81827   0.01267  Uiso   1.00
O3660  O     0.29836   0.17555   0.86122   0.01267  Uiso   1.00
O3661  O     0.29563   0.16945   0.92603   0.01267  Uiso   1.00
O3662  O     0.25368   0.16160   0.91432   0.01267  Uiso   1.00
O3663  O     0.21075   0.06225   0.91217   0.01267  Uiso   1.00
O3664  O     0.23163   0.06082   0.85608   0.01267  Uiso   1.00
O3665  O     0.26858   0.06783   0.82220   0.01267  Uiso   1.00
O3666  O     0.30386   0.05878   0.85893   0.01267  Uiso   1.00
O3667  O     0.29594   0.06297   0.92286   0.01267  Uiso   1.00
O3668  O     0.25389   0.07226   0.91077   0.01267  Uiso   1.00
O3669  O     0.22680   0.11794   0.88754   0.01267  Uiso   1.00
O3670  O     0.30554   0.11729   0.88846   0.01267  Uiso   1.00
O3671  O     0.19138   0.20719   0.96249   0.01267  Uiso   1.00
O3672  O     0.19671   0.14287   0.97139   0.01267  Uiso   1.00
O3673  O     0.19776   0.07699   0.97313   0.01267  Uiso   1.00
O3674  O     0.26718   0.20684   0.95770   0.01267  Uiso   1.00
O3675  O     0.27037   0.14279   0.97191   0.01267  Uiso   1.00
O3676  O     0.26875   0.07642   0.97207   0.01267  Uiso   1.00
O3677  O     0.00069   0.16662   0.89861   0.01267  Uiso   1.00
O3678  O     0.00272   0.07178   0.90052   0.01267  Uiso   1.00
O3679  O     0.28896   0.11452   0.74986   0.01267  Uiso   1.00
O3680  O     0.26713   0.10944   0.69437   0.01267  Uiso   1.00
O3681  O     0.23345   0.11205   0.98595   0.01267  Uiso   1.00
O3682  O     0.20001   0.11054   0.69462   0.01267  Uiso   1.00
O3683  O     0.20325   0.11510   0.75928   0.01267  Uiso   1.00
O3684  O     0.24577   0.12219   0.74928   0.01267  Uiso   1.00
O3685  O     0.28870   0.22435   0.74450   0.01267  Uiso   1.00
O3686  O     0.26836   0.22320   0.68774   0.01267  Uiso   1.00
O3687  O     0.23022   0.21773   0.99025   0.01267  Uiso   1.00
O3688  O     0.19409   0.22596   0.69203   0.01267  Uiso   1.00
O3689  O     0.20313   0.22364   0.75601   0.01267  Uiso   1.00
O3690  O     0.24526   0.21721   0.74223   0.01267  Uiso   1.00
O3691  O     0.27132   0.16822   0.72321   0.01267  Uiso   1.00
O3692  O     0.19406   0.16841   0.72318   0.01267  Uiso   1.00
O3693  O     0.30793   0.07955   0.79708   0.01267  Uiso   1.00
O3694  O     0.30388   0.14447   0.80434   0.01267  Uiso   1.00
O3695  O     0.29949   0.21009   0.80650   0.01267  Uiso   1.00
O3696  O     0.23056   0.07831   0.79294   0.01267  Uiso   1.00
O3697  O     0.22766   0.14295   0.80513   0.01267  Uiso   1.00
O3698  O     0.23126   0.20906   0.80387   0.01267  Uiso   1.00
O3699  O     0.16464   0.12040   0.73233   0.01267  Uiso   1.00
O3700  O     0.16288   0.21303   0.73551   0.01267  Uiso   1.00
O3701  O     0.21016   0.36250   0.91638   0.01267  Uiso   1.00
O3702  O     0.22997   0.36150   0.85915   0.01267  Uiso   1.00
O3703  O     0.26583   0.36684   0.82224   0.01267  Uiso   1.00
O3704  O     0.30148   0.35966   0.85911   0.01267  Uiso   1.00
O3705  O     0.29538   0.36465   0.92338   0.01267  Uiso   1.00
O3706  O     0.25311   0.37251   0.91282   0.01267  Uiso   1.00
O3707  O     0.21043   0.47738   0.90867   0.01267  Uiso   1.00
O3708  O     0.23057   0.47023   0.85223   0.01267  Uiso   1.00
O3709  O     0.26898   0.46765   0.82205   0.01267  Uiso   1.00
O3710  O     0.30450   0.47701   0.85808   0.01267  Uiso   1.00
O3711  O     0.29536   0.47305   0.92199   0.01267  Uiso   1.00
O3712  O     0.25352   0.46671   0.90726   0.01267  Uiso   1.00
O3713  O     0.22560   0.41853   0.89195   0.01267  Uiso   1.00
O3714  O     0.30392   0.41861   0.88759   0.01267  Uiso   1.00
O3715  O     0.19061   0.32874   0.96385   0.01267  Uiso   1.00
O3716  O     0.19554   0.39364   0.97062   0.01267  Uiso   1.00
O3717  O     0.20081   0.45919   0.97020   0.01267  Uiso   1.00
O3718  O     0.26746   0.32780   0.95613   0.01267  Uiso   1.00
O3719  O     0.27092   0.39228   0.96927   0.01267  Uiso   1.00
O3720  O     0.26675   0.45840   0.96924   0.01267  Uiso   1.00
O3721  O     0.00130   0.37364   0.89959   0.01267  Uiso   1.00
O3722  O     0.00220   0.46271   0.90094   0.01267  Uiso   1.00
O3723  O     0.28797   0.42292   0.74921   0.01267  Uiso   1.00
O3724  O     0.26861   0.42535   0.69173   0.01267  Uiso   1.00
O3725  O     0.23357   0.41942   0.98668   0.01267  Uiso   1.00
O3726  O     0.19914   0.42698   0.69291   0.01267  Uiso   1.00
O3727  O     0.20352   0.42098   0.75760   0.01267  Uiso   1.00
O3728  O     0.24524   0.41171   0.74481   0.01267  Uiso   1.00
O3729  O     0.28952   0.30971   0.74191   0.01267  Uiso   1.00
O3730  O     0.26819   0.31298   0.68645   0.01267  Uiso   1.00
O3731  O     0.23033   0.31815   0.98822   0.01267  Uiso   1.00
O3732  O     0.19548   0.30933   0.69280   0.01267  Uiso   1.00
O3733  O     0.20420   0.31556   0.75647   0.01267  Uiso   1.00
O3734  O     0.24627   0.31945   0.74215   0.01267  Uiso   1.00
O3735  O     0.27321   0.36725   0.72239   0.01267  Uiso   1.00
O3736  O     0.19336   0.36840   0.72072   0.01267  Uiso   1.00
O3737  O     0.30812   0.45664   0.79590   0.01267  Uiso   1.00
O3738  O     0.30347   0.39163   0.80253   0.01267  Uiso   1.00
O3739  O     0.29778   0.32611   0.80407   0.01267  Uiso   1.00
O3740  O     0.23259   0.45769   0.78820   0.01267  Uiso   1.00
O3741  O     0.22873   0.39368   0.80282   0.01267  Uiso   1.00
O3742  O     0.23287   0.32769   0.80407   0.01267  Uiso   1.00
O3743  O     0.16467   0.41712   0.73207   0.01267  Uiso   1.00
O3744  O     0.16381   0.32183   0.73557   0.01267  Uiso   1.00
O3745  O     0.12320   0.10780   0.74675   0.01267  Uiso   1.00
O3746  O     0.10477   0.11555   0.80478   0.01267  Uiso   1.00
O3747  O     0.06702   0.11618   0.83740   0.01267  Uiso   1.00
O3748  O     0.03137   0.10868   0.80096   0.01267  Uiso   1.00
O3749  O     0.03779   0.11619   0.73674   0.01267  Uiso   1.00
O3750  O     0.07978   0.11441   0.75230   0.01267  Uiso   1.00
O3751  O     0.12174   0.22612   0.75071   0.01267  Uiso   1.00
O3752  O     0.10125   0.21253   0.80605   0.01267  Uiso   1.00
O3753  O     0.06413   0.21837   0.83849   0.01267  Uiso   1.00
O3754  O     0.02930   0.22763   0.80054   0.01267  Uiso   1.00
O3755  O     0.03666   0.22007   0.73646   0.01267  Uiso   1.00
O3756  O     0.07869   0.21522   0.75039   0.01267  Uiso   1.00
O3757  O     0.10635   0.16584   0.76122   0.01267  Uiso   1.00
O3758  O     0.02693   0.16797   0.77401   0.01267  Uiso   1.00
O3759  O     0.14192   0.08009   0.69465   0.01267  Uiso   1.00
O3760  O     0.13318   0.14443   0.69429   0.01267  Uiso   1.00
O3761  O     0.13198   0.21005   0.68900   0.01267  Uiso   1.00
O3762  O     0.06431   0.07670   0.70407   0.01267  Uiso   1.00
O3763  O     0.06716   0.14181   0.69597   0.01267  Uiso   1.00
O3764  O     0.06494   0.20712   0.68837   0.01267  Uiso   1.00
O3765  O     0.33140   0.12014   0.76028   0.01267  Uiso   1.00
O3766  O     0.33005   0.21347   0.75963   0.01267  Uiso   1.00
O3767  O     0.04281   0.17260   0.91160   0.01267  Uiso   1.00
O3768  O     0.06066   0.16730   0.97032   0.01267  Uiso   1.00
O3769  O     0.09925   0.17347   0.99911   0.01267  Uiso   1.00
O3770  O     0.13783   0.17373   0.96985   0.01267  Uiso   1.00
O3771  O     0.12857   0.17276   0.90579   0.01267  Uiso   1.00
O3772  O     0.08620   0.16893   0.91816   0.01267  Uiso   1.00
O3773  O     0.04316   0.05773   0.91803   0.01267  Uiso   1.00
O3774  O     0.06416   0.06810   0.97310   0.01267  Uiso   1.00
O3775  O     0.10186   0.06948   0.67181   0.01267  Uiso   1.00
O3776  O     0.13638   0.05899   0.96669   0.01267  Uiso   1.00
O3777  O     0.12868   0.06309   0.90264   0.01267  Uiso   1.00
O3778  O     0.08665   0.06312   0.91785   0.01267  Uiso   1.00
O3779  O     0.06154   0.11605   0.92828   0.01267  Uiso   1.00
O3780  O     0.13892   0.11713   0.93699   0.01267  Uiso   1.00
O3781  O     0.02478   0.20637   0.86225   0.01267  Uiso   1.00
O3782  O     0.02934   0.14097   0.85743   0.01267  Uiso   1.00
O3783  O     0.03494   0.07547   0.85609   0.01267  Uiso   1.00
O3784  O     0.10121   0.20733   0.87024   0.01267  Uiso   1.00
O3785  O     0.10281   0.14119   0.86427   0.01267  Uiso   1.00
O3786  O     0.09929   0.07614   0.85602   0.01267  Uiso   1.00
O3787  O     0.16889   0.16442   0.92605   0.01267  Uiso   1.00
O3788  O     0.16878   0.07061   0.92456   0.01267  Uiso   1.00
O3789  O     0.14397   0.26772   0.71258   0.01267  Uiso   1.00
O3790  O     0.06436   0.26626   0.71464   0.01267  Uiso   1.00
O3791  O     0.09479   0.26600   0.84334   0.01267  Uiso   1.00
O3792  O     0.03596   0.26833   0.85006   0.01267  Uiso   1.00
O3793  O     0.02221   0.01707   0.87809   0.01267  Uiso   1.00
O3794  O     0.10279   0.01576   0.87912   0.01267  Uiso   1.00
O3795  O     0.07453   0.01841   0.68006   0.01267  Uiso   1.00
O3796  O     0.12889   0.01883   0.68348   0.01267  Uiso   1.00
O3797  O     0.18990   0.01826   0.94914   0.01267  Uiso   1.00
O3798  O     0.26689   0.01810   0.94316   0.01267  Uiso   1.00
O3799  O     0.24137   0.01753   0.80952   0.01267  Uiso   1.00
O3800  O     0.29622   0.01804   0.80939   0.01267  Uiso   1.00
O3801  O     0.30982   0.26781   0.78161   0.01267  Uiso   1.00
O3802  O     0.23126   0.26858   0.77768   0.01267  Uiso   1.00
O3803  O     0.25738   0.26754   0.97564   0.01267  Uiso   1.00
O3804  O     0.20281   0.26784   0.97720   0.01267  Uiso   1.00
Si3805 Si    0.14096   0.92298   0.71529   0.01267  Uiso   1.00
Si3806 Si    0.10282   0.90810   0.76362   0.01267  Uiso   1.00
Si3807 Si    0.09260   0.92159   0.83733   0.01267  Uiso   1.00
Si3808 Si    0.04023   0.92434   0.83709   0.01267  Uiso   1.00
Si3809 Si    0.02255   0.90720   0.76630   0.01267  Uiso   1.00
Si3810 Si    0.06158   0.92442   0.72162   0.01267  Uiso   1.00
Si3811 Si    0.14080   0.80650   0.72198   0.01267  Uiso   1.00
Si3812 Si    0.10221   0.82979   0.76726   0.01267  Uiso   1.00
Si3813 Si    0.03840   0.80747   0.84037   0.01267  Uiso   1.00
Si3814 Si    0.02257   0.82808   0.76805   0.01267  Uiso   1.00
Si3815 Si    0.06157   0.80484   0.72511   0.01267  Uiso   1.00
Si3816 Si    0.02503   0.86400   0.88456   0.01267  Uiso   1.00
Si3817 Si    0.06234   0.87694   0.93510   0.01267  Uiso   1.00
Si3818 Si    0.07267   0.86181   0.67537   0.01267  Uiso   1.00
Si3819 Si    0.12539   0.86046   0.67200   0.01267  Uiso   1.00
Si3820 Si    0.14292   0.88055   0.93622   0.01267  Uiso   1.00
Si3821 Si    0.10369   0.86499   0.89039   0.01267  Uiso   1.00
Si3822 Si    0.02515   0.97821   0.88750   0.01267  Uiso   1.00
Si3823 Si    0.06406   0.95703   0.93393   0.01267  Uiso   1.00
Si3824 Si    0.07649   0.97913   0.67256   0.01267  Uiso   1.00
Si3825 Si    0.12739   0.98090   0.67029   0.01267  Uiso   1.00
Si3826 Si    0.14395   0.95876   0.93437   0.01267  Uiso   1.00
Si3827 Si    0.10496   0.97672   0.88806   0.01267  Uiso   1.00
Si3828 Si    0.19211   0.67141   0.94405   0.01267  Uiso   1.00
Si3829 Si    0.23089   0.65709   0.89463   0.01267  Uiso   1.00
Si3830 Si    0.23924   0.67508   0.82175   0.01267  Uiso   1.00
Si3831 Si    0.29180   0.67518   0.82269   0.01267  Uiso   1.00
Si3832 Si    0.30853   0.65709   0.89336   0.01267  Uiso   1.00
Si3833 Si    0.27150   0.67015   0.94259   0.01267  Uiso   1.00
Si3834 Si    0.19181   0.55719   0.93957   0.01267  Uiso   1.00
Si3835 Si    0.23084   0.57839   0.89185   0.01267  Uiso   1.00
Si3836 Si    0.24306   0.55615   0.82034   0.01267  Uiso   1.00
Si3837 Si    0.29414   0.55614   0.82200   0.01267  Uiso   1.00
Si3838 Si    0.31033   0.57794   0.89263   0.01267  Uiso   1.00
Si3839 Si    0.27135   0.55734   0.93709   0.01267  Uiso   1.00
Si3840 Si    0.30781   0.61488   0.77782   0.01267  Uiso   1.00
Si3841 Si    0.26831   0.62873   0.72932   0.01267  Uiso   1.00
Si3842 Si    0.25989   0.61020   0.98939   0.01267  Uiso   1.00
Si3843 Si    0.20709   0.61072   0.98967   0.01267  Uiso   1.00
Si3844 Si    0.19034   0.62868   0.72717   0.01267  Uiso   1.00
Si3845 Si    0.22712   0.61468   0.77666   0.01267  Uiso   1.00
Si3846 Si    0.30708   0.72884   0.77292   0.01267  Uiso   1.00
Si3847 Si    0.26842   0.70814   0.72470   0.01267  Uiso   1.00
Si3848 Si    0.25582   0.72881   0.98635   0.01267  Uiso   1.00
Si3849 Si    0.20470   0.72946   0.98902   0.01267  Uiso   1.00
Si3850 Si    0.18854   0.70759   0.72657   0.01267  Uiso   1.00
Si3851 Si    0.22785   0.72952   0.76982   0.01267  Uiso   1.00
Si3852 Si    0.19139   0.86398   0.94442   0.01267  Uiso   1.00
Si3853 Si    0.22981   0.87890   0.89504   0.01267  Uiso   1.00
Si3854 Si    0.23945   0.86228   0.82192   0.01267  Uiso   1.00
Si3855 Si    0.29207   0.86100   0.82195   0.01267  Uiso   1.00
Si3856 Si    0.30888   0.87918   0.89221   0.01267  Uiso   1.00
Si3857 Si    0.27145   0.86436   0.94050   0.01267  Uiso   1.00
Si3858 Si    0.19267   0.97989   0.93821   0.01267  Uiso   1.00
Si3859 Si    0.23018   0.95812   0.89015   0.01267  Uiso   1.00
Si3860 Si    0.24340   0.97839   0.81822   0.01267  Uiso   1.00
Si3861 Si    0.29445   0.97968   0.82134   0.01267  Uiso   1.00
Si3862 Si    0.30982   0.95764   0.89211   0.01267  Uiso   1.00
Si3863 Si    0.27061   0.97903   0.93540   0.01267  Uiso   1.00
Si3864 Si    0.30734   0.92148   0.77633   0.01267  Uiso   1.00
Si3865 Si    0.26878   0.90665   0.72707   0.01267  Uiso   1.00
Si3866 Si    0.25995   0.92401   0.98742   0.01267  Uiso   1.00
Si3867 Si    0.20736   0.92485   0.98847   0.01267  Uiso   1.00
Si3868 Si    0.22783   0.92099   0.77350   0.01267  Uiso   1.00
Si3869 Si    0.30692   0.80653   0.77189   0.01267  Uiso   1.00
Si3870 Si    0.26921   0.82747   0.72348   0.01267  Uiso   1.00
Si3871 Si    0.25586   0.80655   0.98512   0.01267  Uiso   1.00
Si3872 Si    0.20488   0.80616   0.98902   0.01267  Uiso   1.00
Si3873 Si    0.22872   0.80786   0.76995   0.01267  Uiso   1.00
Si3874 Si    0.14060   0.61342   0.71703   0.01267  Uiso   1.00
Si3875 Si    0.10341   0.62614   0.76641   0.01267  Uiso   1.00
Si3876 Si    0.09335   0.61230   0.84062   0.01267  Uiso   1.00
Si3877 Si    0.04078   0.61041   0.83813   0.01267  Uiso   1.00
Si3878 Si    0.02356   0.62842   0.76815   0.01267  Uiso   1.00
Si3879 Si    0.06237   0.61249   0.72218   0.01267  Uiso   1.00
Si3880 Si    0.14007   0.72907   0.72205   0.01267  Uiso   1.00
Si3881 Si    0.10187   0.70511   0.76726   0.01267  Uiso   1.00
Si3882 Si    0.09028   0.72722   0.83953   0.01267  Uiso   1.00
Si3883 Si    0.03876   0.73032   0.83783   0.01267  Uiso   1.00
Si3884 Si    0.02246   0.70724   0.76782   0.01267  Uiso   1.00
Si3885 Si    0.06123   0.72713   0.72263   0.01267  Uiso   1.00
Si3886 Si    0.02472   0.67162   0.88239   0.01267  Uiso   1.00
Si3887 Si    0.06281   0.65617   0.93211   0.01267  Uiso   1.00
Si3888 Si    0.07303   0.67253   0.67191   0.01267  Uiso   1.00
Si3889 Si    0.12541   0.67523   0.67160   0.01267  Uiso   1.00
Si3890 Si    0.14338   0.65682   0.93468   0.01267  Uiso   1.00
Si3891 Si    0.10440   0.67253   0.88919   0.01267  Uiso   1.00
Si3892 Si    0.02570   0.55568   0.88807   0.01267  Uiso   1.00
Si3893 Si    0.06400   0.57646   0.93422   0.01267  Uiso   1.00
Si3894 Si    0.07627   0.55798   0.67376   0.01267  Uiso   1.00
Si3895 Si    0.12722   0.55698   0.67070   0.01267  Uiso   1.00
Si3896 Si    0.14317   0.57764   0.93282   0.01267  Uiso   1.00
Si3897 Si    0.10428   0.55476   0.88899   0.01267  Uiso   1.00
Si3898 Si    0.19016   0.90816   0.72564   0.01267  Uiso   1.00
Si3899 Si    0.18924   0.82902   0.72631   0.01267  Uiso   1.00
Al3900 Al    0.09000   0.80751   0.83856   0.01267  Uiso   1.00
O3901  O     0.12274   0.92634   0.74414   0.01267  Uiso   1.00
O3902  O     0.10513   0.91609   0.80265   0.01267  Uiso   1.00
O3903  O     0.06651   0.92387   0.83161   0.01267  Uiso   1.00
O3904  O     0.02815   0.92325   0.80185   0.01267  Uiso   1.00
O3905  O     0.03730   0.92396   0.73760   0.01267  Uiso   1.00
O3906  O     0.07954   0.92280   0.75103   0.01267  Uiso   1.00
O3907  O     0.12267   0.81005   0.75061   0.01267  Uiso   1.00
O3908  O     0.10326   0.82633   0.80624   0.01267  Uiso   1.00
O3909  O     0.06329   0.82007   0.84331   0.01267  Uiso   1.00
O3910  O     0.02873   0.81240   0.80335   0.01267  Uiso   1.00
O3911  O     0.03699   0.81059   0.73931   0.01267  Uiso   1.00
O3912  O     0.07926   0.81450   0.75329   0.01267  Uiso   1.00
O3913  O     0.10402   0.86866   0.75581   0.01267  Uiso   1.00
O3914  O     0.02742   0.86770   0.76773   0.01267  Uiso   1.00
O3915  O     0.14188   0.95711   0.69393   0.01267  Uiso   1.00
O3916  O     0.13567   0.89215   0.69092   0.01267  Uiso   1.00
O3917  O     0.13319   0.82606   0.68892   0.01267  Uiso   1.00
O3918  O     0.06427   0.95904   0.70169   0.01267  Uiso   1.00
O3919  O     0.06445   0.89316   0.69693   0.01267  Uiso   1.00
O3920  O     0.06536   0.82720   0.69232   0.01267  Uiso   1.00
O3921  O     0.33044   0.91518   0.75765   0.01267  Uiso   1.00
O3922  O     0.33015   0.82198   0.75999   0.01267  Uiso   1.00
O3923  O     0.04211   0.86110   0.91505   0.01267  Uiso   1.00
O3924  O     0.06147   0.86377   0.97257   0.01267  Uiso   1.00
O3925  O     0.09904   0.86327   0.67149   0.01267  Uiso   1.00
O3926  O     0.13438   0.85975   0.96773   0.01267  Uiso   1.00
O3927  O     0.12799   0.87139   0.90428   0.01267  Uiso   1.00
O3928  O     0.08549   0.86454   0.91886   0.01267  Uiso   1.00
O3929  O     0.04333   0.97433   0.91623   0.01267  Uiso   1.00
O3930  O     0.06479   0.97056   0.97122   0.01267  Uiso   1.00
O3931  O     0.10212   0.96790   0.67074   0.01267  Uiso   1.00
O3932  O     0.13675   0.98032   0.96622   0.01267  Uiso   1.00
O3933  O     0.12914   0.96877   0.90282   0.01267  Uiso   1.00
O3934  O     0.08676   0.96633   0.91532   0.01267  Uiso   1.00
O3935  O     0.06127   0.91705   0.93342   0.01267  Uiso   1.00
O3936  O     0.14060   0.91983   0.94366   0.01267  Uiso   1.00
O3937  O     0.02304   0.82877   0.86566   0.01267  Uiso   1.00
O3938  O     0.03314   0.89284   0.85937   0.01267  Uiso   1.00
O3939  O     0.03317   0.95881   0.85470   0.01267  Uiso   1.00
O3940  O     0.10535   0.82613   0.87438   0.01267  Uiso   1.00
O3941  O     0.09763   0.88971   0.86096   0.01267  Uiso   1.00
O3942  O     0.10161   0.95522   0.85463   0.01267  Uiso   1.00
O3943  O     0.16780   0.87018   0.92696   0.01267  Uiso   1.00
O3944  O     0.16938   0.96554   0.92503   0.01267  Uiso   1.00
O3945  O     0.21094   0.67230   0.91604   0.01267  Uiso   1.00
O3946  O     0.23203   0.67728   0.86009   0.01267  Uiso   1.00
O3947  O     0.26555   0.67091   0.81827   0.01267  Uiso   1.00
O3948  O     0.29836   0.67555   0.86122   0.01267  Uiso   1.00
O3949  O     0.29563   0.66945   0.92603   0.01267  Uiso   1.00
O3950  O     0.25368   0.66160   0.91432   0.01267  Uiso   1.00
O3951  O     0.21075   0.56225   0.91217   0.01267  Uiso   1.00
O3952  O     0.23163   0.56082   0.85608   0.01267  Uiso   1.00
O3953  O     0.26858   0.56783   0.82220   0.01267  Uiso   1.00
O3954  O     0.30386   0.55878   0.85893   0.01267  Uiso   1.00
O3955  O     0.29594   0.56297   0.92286   0.01267  Uiso   1.00
O3956  O     0.25389   0.57226   0.91077   0.01267  Uiso   1.00
O3957  O     0.22680   0.61794   0.88754   0.01267  Uiso   1.00
O3958  O     0.30554   0.61729   0.88846   0.01267  Uiso   1.00
O3959  O     0.19138   0.70719   0.96249   0.01267  Uiso   1.00
O3960  O     0.19671   0.64287   0.97139   0.01267  Uiso   1.00
O3961  O     0.19776   0.57699   0.97313   0.01267  Uiso   1.00
O3962  O     0.26718   0.70684   0.95770   0.01267  Uiso   1.00
O3963  O     0.27037   0.64279   0.97191   0.01267  Uiso   1.00
O3964  O     0.26875   0.57642   0.97207   0.01267  Uiso   1.00
O3965  O     0.00069   0.66662   0.89861   0.01267  Uiso   1.00
O3966  O     0.00272   0.57178   0.90052   0.01267  Uiso   1.00
O3967  O     0.28896   0.61452   0.74986   0.01267  Uiso   1.00
O3968  O     0.26713   0.60944   0.69437   0.01267  Uiso   1.00
O3969  O     0.23345   0.61205   0.98595   0.01267  Uiso   1.00
O3970  O     0.20001   0.61054   0.69462   0.01267  Uiso   1.00
O3971  O     0.20325   0.61510   0.75928   0.01267  Uiso   1.00
O3972  O     0.24577   0.62219   0.74928   0.01267  Uiso   1.00
O3973  O     0.28870   0.72435   0.74450   0.01267  Uiso   1.00
O3974  O     0.26836   0.72320   0.68774   0.01267  Uiso   1.00
O3975  O     0.23022   0.71773   0.99025   0.01267  Uiso   1.00
O3976  O     0.19409   0.72596   0.69203   0.01267  Uiso   1.00
O3977  O     0.20313   0.72364   0.75601   0.01267  Uiso   1.00
O3978  O     0.24526   0.71721   0.74223   0.01267  Uiso   1.00
O3979  O     0.27132   0.66822   0.72321   0.01267  Uiso   1.00
O3980  O     0.19406   0.66841   0.72318   0.01267  Uiso   1.00
O3981  O     0.30793   0.57955   0.79708   0.01267  Uiso   1.00
O3982  O     0.30388   0.64447   0.80434   0.01267  Uiso   1.00
O3983  O     0.29949   0.71009   0.80650   0.01267  Uiso   1.00
O3984  O     0.23056   0.57831   0.79294   0.01267  Uiso   1.00
O3985  O     0.22766   0.64295   0.80513   0.01267  Uiso   1.00
O3986  O     0.23126   0.70906   0.80387   0.01267  Uiso   1.00
O3987  O     0.16464   0.62040   0.73233   0.01267  Uiso   1.00
O3988  O     0.16288   0.71303   0.73551   0.01267  Uiso   1.00
O3989  O     0.21016   0.86250   0.91638   0.01267  Uiso   1.00
O3990  O     0.22997   0.86150   0.85915   0.01267  Uiso   1.00
O3991  O     0.26583   0.86684   0.82224   0.01267  Uiso   1.00
O3992  O     0.30148   0.85966   0.85911   0.01267  Uiso   1.00
O3993  O     0.29538   0.86465   0.92338   0.01267  Uiso   1.00
O3994  O     0.25311   0.87251   0.91282   0.01267  Uiso   1.00
O3995  O     0.21043   0.97738   0.90867   0.01267  Uiso   1.00
O3996  O     0.23057   0.97023   0.85223   0.01267  Uiso   1.00
O3997  O     0.26898   0.96765   0.82205   0.01267  Uiso   1.00
O3998  O     0.30450   0.97701   0.85808   0.01267  Uiso   1.00
O3999  O     0.29536   0.97304   0.92199   0.01267  Uiso   1.00
O4000  O     0.25352   0.96671   0.90726   0.01267  Uiso   1.00
O4001  O     0.22560   0.91853   0.89195   0.01267  Uiso   1.00
O4002  O     0.30392   0.91861   0.88759   0.01267  Uiso   1.00
O4003  O     0.19061   0.82874   0.96385   0.01267  Uiso   1.00
O4004  O     0.19554   0.89364   0.97062   0.01267  Uiso   1.00
O4005  O     0.20081   0.95919   0.97020   0.01267  Uiso   1.00
O4006  O     0.26746   0.82780   0.95613   0.01267  Uiso   1.00
O4007  O     0.27092   0.89228   0.96927   0.01267  Uiso   1.00
O4008  O     0.26675   0.95840   0.96924   0.01267  Uiso   1.00
O4009  O     0.00130   0.87364   0.89959   0.01267  Uiso   1.00
O4010  O     0.00220   0.96271   0.90094   0.01267  Uiso   1.00
O4011  O     0.28797   0.92292   0.74921   0.01267  Uiso   1.00
O4012  O     0.26861   0.92535   0.69173   0.01267  Uiso   1.00
O4013  O     0.23357   0.91942   0.98668   0.01267  Uiso   1.00
O4014  O     0.19914   0.92698   0.69291   0.01267  Uiso   1.00
O4015  O     0.20352   0.92098   0.75760   0.01267  Uiso   1.00
O4016  O     0.24524   0.91171   0.74481   0.01267  Uiso   1.00
O4017  O     0.28952   0.80971   0.74191   0.01267  Uiso   1.00
O4018  O     0.26819   0.81298   0.68645   0.01267  Uiso   1.00
O4019  O     0.23033   0.81815   0.98822   0.01267  Uiso   1.00
O4020  O     0.19548   0.80933   0.69280   0.01267  Uiso   1.00
O4021  O     0.20420   0.81556   0.75647   0.01267  Uiso   1.00
O4022  O     0.24627   0.81945   0.74215   0.01267  Uiso   1.00
O4023  O     0.27321   0.86725   0.72239   0.01267  Uiso   1.00
O4024  O     0.19336   0.86840   0.72072   0.01267  Uiso   1.00
O4025  O     0.30812   0.95664   0.79590   0.01267  Uiso   1.00
O4026  O     0.30347   0.89163   0.80253   0.01267  Uiso   1.00
O4027  O     0.29778   0.82611   0.80407   0.01267  Uiso   1.00
O4028  O     0.23259   0.95769   0.78820   0.01267  Uiso   1.00
O4029  O     0.22873   0.89368   0.80282   0.01267  Uiso   1.00
O4030  O     0.23287   0.82769   0.80407   0.01267  Uiso   1.00
O4031  O     0.16467   0.91712   0.73207   0.01267  Uiso   1.00
O4032  O     0.16381   0.82183   0.73557   0.01267  Uiso   1.00
O4033  O     0.12320   0.60780   0.74675   0.01267  Uiso   1.00
O4034  O     0.10477   0.61555   0.80478   0.01267  Uiso   1.00
O4035  O     0.06702   0.61618   0.83740   0.01267  Uiso   1.00
O4036  O     0.03137   0.60868   0.80096   0.01267  Uiso   1.00
O4037  O     0.03779   0.61619   0.73674   0.01267  Uiso   1.00
O4038  O     0.07978   0.61441   0.75230   0.01267  Uiso   1.00
O4039  O     0.12174   0.72612   0.75071   0.01267  Uiso   1.00
O4040  O     0.10125   0.71253   0.80605   0.01267  Uiso   1.00
O4041  O     0.06413   0.71837   0.83849   0.01267  Uiso   1.00
O4042  O     0.02930   0.72763   0.80054   0.01267  Uiso   1.00
O4043  O     0.03666   0.72007   0.73646   0.01267  Uiso   1.00
O4044  O     0.07869   0.71522   0.75039   0.01267  Uiso   1.00
O4045  O     0.10635   0.66584   0.76122   0.01267  Uiso   1.00
O4046  O     0.02693   0.66797   0.77401   0.01267  Uiso   1.00
O4047  O     0.14192   0.58009   0.69465   0.01267  Uiso   1.00
O4048  O     0.13318   0.64443   0.69429   0.01267  Uiso   1.00
O4049  O     0.13198   0.71005   0.68900   0.01267  Uiso   1.00
O4050  O     0.06431   0.57670   0.70407   0.01267  Uiso   1.00
O4051  O     0.06716   0.64181   0.69597   0.01267  Uiso   1.00
O4052  O     0.06494   0.70712   0.68837   0.01267  Uiso   1.00
O4053  O     0.33140   0.62014   0.76028   0.01267  Uiso   1.00
O4054  O     0.33005   0.71347   0.75963   0.01267  Uiso   1.00
O4055  O     0.04281   0.67260   0.91160   0.01267  Uiso   1.00
O4056  O     0.06066   0.66730   0.97032   0.01267  Uiso   1.00
O4057  O     0.09925   0.67347   0.99911   0.01267  Uiso   1.00
O4058  O     0.13783   0.67373   0.96985   0.01267  Uiso   1.00
O4059  O     0.12857   0.67276   0.90579   0.01267  Uiso   1.00
O4060  O     0.08620   0.66893   0.91816   0.01267  Uiso   1.00
O4061  O     0.04316   0.55773   0.91803   0.01267  Uiso   1.00
O4062  O     0.06416   0.56810   0.97310   0.01267  Uiso   1.00
O4063  O     0.10186   0.56948   0.67181   0.01267  Uiso   1.00
O4064  O     0.13638   0.55899   0.96669   0.01267  Uiso   1.00
O4065  O     0.12868   0.56309   0.90264   0.01267  Uiso   1.00
O4066  O     0.08665   0.56312   0.91785   0.01267  Uiso   1.00
O4067  O     0.06154   0.61605   0.92828   0.01267  Uiso   1.00
O4068  O     0.13892   0.61713   0.93699   0.01267  Uiso   1.00
O4069  O     0.02478   0.70637   0.86225   0.01267  Uiso   1.00
O4070  O     0.02934   0.64097   0.85743   0.01267  Uiso   1.00
O4071  O     0.03494   0.57547   0.85609   0.01267  Uiso   1.00
O4072  O     0.10121   0.70733   0.87024   0.01267  Uiso   1.00
O4073  O     0.10281   0.64119   0.86427   0.01267  Uiso   1.00
O4074  O     0.09929   0.57614   0.85602   0.01267  Uiso   1.00
O4075  O     0.16889   0.66442   0.92605   0.01267  Uiso   1.00
O4076  O     0.16878   0.57061   0.92456   0.01267  Uiso   1.00
O4077  O     0.14397   0.76772   0.71258   0.01267  Uiso   1.00
O4078  O     0.06436   0.76626   0.71464   0.01267  Uiso   1.00
O4079  O     0.09479   0.76600   0.84334   0.01267  Uiso   1.00
O4080  O     0.03596   0.76833   0.85006   0.01267  Uiso   1.00
O4081  O     0.02221   0.51707   0.87809   0.01267  Uiso   1.00
O4082  O     0.10279   0.51576   0.87912   0.01267  Uiso   1.00
O4083  O     0.07453   0.51841   0.68006   0.01267  Uiso   1.00
O4084  O     0.12889   0.51882   0.68348   0.01267  Uiso   1.00
O4085  O     0.18990   0.51826   0.94914   0.01267  Uiso   1.00
O4086  O     0.26689   0.51810   0.94316   0.01267  Uiso   1.00
O4087  O     0.24137   0.51753   0.80952   0.01267  Uiso   1.00
O4088  O     0.29622   0.51804   0.80939   0.01267  Uiso   1.00
O4089  O     0.30982   0.76781   0.78161   0.01267  Uiso   1.00
O4090  O     0.23126   0.76858   0.77768   0.01267  Uiso   1.00
O4091  O     0.25738   0.76754   0.97564   0.01267  Uiso   1.00
O4092  O     0.20281   0.76784   0.97720   0.01267  Uiso   1.00
H4093  H     0.12022   0.81610   0.87642   0.01267  Uiso   1.00
H4094  H     0.17744   0.76431   0.79676   0.01267  Uiso   1.00
H4095  H     0.15344   0.81753   0.80946   0.01267  Uiso   1.00
H4096  H     0.18900   0.73341   0.85143   0.01267  Uiso   1.00
H4097  H     0.17343   0.76396   0.90414   0.01267  Uiso   1.00
C4098  C     0.17891   0.75567   0.85078   0.01267  Uiso   1.00
C4099  C     0.17106   0.77085   0.87856   0.01267  Uiso   1.00
C4100  C     0.17278   0.77245   0.82129   0.01267  Uiso   1.00
C4101  C     0.16046   0.80027   0.82704   0.01267  Uiso   1.00
S4102  S     0.15682   0.80629   0.86853   0.01267  Uiso   1.00
Si4103 Si    0.47429   0.42298   0.71529   0.01267  Uiso   1.00
Si4104 Si    0.43616   0.40810   0.76362   0.01267  Uiso   1.00
Si4105 Si    0.42594   0.42159   0.83733   0.01267  Uiso   1.00
Si4106 Si    0.37356   0.42434   0.83709   0.01267  Uiso   1.00
Si4107 Si    0.35588   0.40720   0.76630   0.01267  Uiso   1.00
Si4108 Si    0.39492   0.42442   0.72162   0.01267  Uiso   1.00
Si4109 Si    0.47414   0.30650   0.72198   0.01267  Uiso   1.00
Si4110 Si    0.43554   0.32979   0.76726   0.01267  Uiso   1.00
Si4111 Si    0.37173   0.30747   0.84037   0.01267  Uiso   1.00
Si4112 Si    0.35590   0.32808   0.76805   0.01267  Uiso   1.00
Si4113 Si    0.39490   0.30484   0.72511   0.01267  Uiso   1.00
Si4114 Si    0.35836   0.36400   0.88456   0.01267  Uiso   1.00
Si4115 Si    0.39568   0.37694   0.93510   0.01267  Uiso   1.00
Si4116 Si    0.40600   0.36181   0.67537   0.01267  Uiso   1.00
Si4117 Si    0.45873   0.36046   0.67200   0.01267  Uiso   1.00
Si4118 Si    0.47625   0.38055   0.93622   0.01267  Uiso   1.00
Si4119 Si    0.43703   0.36499   0.89039   0.01267  Uiso   1.00
Si4120 Si    0.35848   0.47821   0.88750   0.01267  Uiso   1.00
Si4121 Si    0.39739   0.45703   0.93393   0.01267  Uiso   1.00
Si4122 Si    0.40982   0.47913   0.67256   0.01267  Uiso   1.00
Si4123 Si    0.46073   0.48090   0.67029   0.01267  Uiso   1.00
Si4124 Si    0.47729   0.45876   0.93437   0.01267  Uiso   1.00
Si4125 Si    0.43829   0.47672   0.88806   0.01267  Uiso   1.00
Si4126 Si    0.52545   0.17141   0.94405   0.01267  Uiso   1.00
Si4127 Si    0.56423   0.15709   0.89463   0.01267  Uiso   1.00
Si4128 Si    0.57257   0.17508   0.82175   0.01267  Uiso   1.00
Si4129 Si    0.62513   0.17518   0.82269   0.01267  Uiso   1.00
Si4130 Si    0.64187   0.15709   0.89336   0.01267  Uiso   1.00
Si4131 Si    0.60483   0.17015   0.94259   0.01267  Uiso   1.00
Si4132 Si    0.52514   0.05719   0.93957   0.01267  Uiso   1.00
Si4133 Si    0.56418   0.07839   0.89185   0.01267  Uiso   1.00
Si4134 Si    0.57639   0.05615   0.82034   0.01267  Uiso   1.00
Si4135 Si    0.62748   0.05614   0.82200   0.01267  Uiso   1.00
Si4136 Si    0.64367   0.07794   0.89263   0.01267  Uiso   1.00
Si4137 Si    0.60468   0.05734   0.93709   0.01267  Uiso   1.00
Si4138 Si    0.64115   0.11488   0.77782   0.01267  Uiso   1.00
Si4139 Si    0.60164   0.12873   0.72932   0.01267  Uiso   1.00
Si4140 Si    0.59323   0.11020   0.98939   0.01267  Uiso   1.00
Si4141 Si    0.54042   0.11072   0.98967   0.01267  Uiso   1.00
Si4142 Si    0.52368   0.12868   0.72717   0.01267  Uiso   1.00
Si4143 Si    0.56045   0.11468   0.77666   0.01267  Uiso   1.00
Si4144 Si    0.64041   0.22884   0.77292   0.01267  Uiso   1.00
Si4145 Si    0.60175   0.20814   0.72470   0.01267  Uiso   1.00
Si4146 Si    0.58915   0.22881   0.98635   0.01267  Uiso   1.00
Si4147 Si    0.53803   0.22946   0.98902   0.01267  Uiso   1.00
Si4148 Si    0.52187   0.20759   0.72657   0.01267  Uiso   1.00
Si4149 Si    0.56118   0.22952   0.76982   0.01267  Uiso   1.00
Si4150 Si    0.52473   0.36398   0.94442   0.01267  Uiso   1.00
Si4151 Si    0.56314   0.37890   0.89504   0.01267  Uiso   1.00
Si4152 Si    0.57279   0.36228   0.82192   0.01267  Uiso   1.00
Si4153 Si    0.62540   0.36100   0.82195   0.01267  Uiso   1.00
Si4154 Si    0.64221   0.37918   0.89221   0.01267  Uiso   1.00
Si4155 Si    0.60478   0.36436   0.94050   0.01267  Uiso   1.00
Si4156 Si    0.52600   0.47989   0.93821   0.01267  Uiso   1.00
Si4157 Si    0.56352   0.45812   0.89015   0.01267  Uiso   1.00
Si4158 Si    0.57673   0.47839   0.81822   0.01267  Uiso   1.00
Si4159 Si    0.62779   0.47968   0.82134   0.01267  Uiso   1.00
Si4160 Si    0.64315   0.45764   0.89211   0.01267  Uiso   1.00
Si4161 Si    0.60394   0.47903   0.93540   0.01267  Uiso   1.00
Si4162 Si    0.64067   0.42148   0.77633   0.01267  Uiso   1.00
Si4163 Si    0.60211   0.40665   0.72707   0.01267  Uiso   1.00
Si4164 Si    0.59328   0.42401   0.98742   0.01267  Uiso   1.00
Si4165 Si    0.54069   0.42485   0.98847   0.01267  Uiso   1.00
Si4166 Si    0.56116   0.42099   0.77350   0.01267  Uiso   1.00
Si4167 Si    0.64025   0.30653   0.77189   0.01267  Uiso   1.00
Si4168 Si    0.60254   0.32747   0.72348   0.01267  Uiso   1.00
Si4169 Si    0.58920   0.30655   0.98512   0.01267  Uiso   1.00
Si4170 Si    0.53821   0.30616   0.98902   0.01267  Uiso   1.00
Si4171 Si    0.56205   0.30786   0.76995   0.01267  Uiso   1.00
Si4172 Si    0.47393   0.11342   0.71703   0.01267  Uiso   1.00
Si4173 Si    0.43674   0.12614   0.76641   0.01267  Uiso   1.00
Si4174 Si    0.42668   0.11230   0.84062   0.01267  Uiso   1.00
Si4175 Si    0.37412   0.11041   0.83813   0.01267  Uiso   1.00
Si4176 Si    0.35690   0.12842   0.76815   0.01267  Uiso   1.00
Si4177 Si    0.39571   0.11249   0.72218   0.01267  Uiso   1.00
Si4178 Si    0.47340   0.22907   0.72205   0.01267  Uiso   1.00
Si4179 Si    0.43520   0.20511   0.76726   0.01267  Uiso   1.00
Si4180 Si    0.42361   0.22722   0.83953   0.01267  Uiso   1.00
Si4181 Si    0.37209   0.23032   0.83783   0.01267  Uiso   1.00
Si4182 Si    0.35580   0.20724   0.76782   0.01267  Uiso   1.00
Si4183 Si    0.39456   0.22713   0.72263   0.01267  Uiso   1.00
Si4184 Si    0.35806   0.17162   0.88239   0.01267  Uiso   1.00
Si4185 Si    0.39614   0.15617   0.93211   0.01267  Uiso   1.00
Si4186 Si    0.40637   0.17253   0.67191   0.01267  Uiso   1.00
Si4187 Si    0.45874   0.17523   0.67160   0.01267  Uiso   1.00
Si4188 Si    0.47672   0.15682   0.93468   0.01267  Uiso   1.00
Si4189 Si    0.43774   0.17253   0.88919   0.01267  Uiso   1.00
Si4190 Si    0.35903   0.05568   0.88807   0.01267  Uiso   1.00
Si4191 Si    0.39733   0.07646   0.93422   0.01267  Uiso   1.00
Si4192 Si    0.40960   0.05798   0.67376   0.01267  Uiso   1.00
Si4193 Si    0.46055   0.05698   0.67070   0.01267  Uiso   1.00
Si4194 Si    0.47650   0.07764   0.93282   0.01267  Uiso   1.00
Si4195 Si    0.43762   0.05476   0.88899   0.01267  Uiso   1.00
Si4196 Si    0.52350   0.40816   0.72564   0.01267  Uiso   1.00
Si4197 Si    0.52257   0.32902   0.72631   0.01267  Uiso   1.00
Al4198 Al    0.42333   0.30751   0.83856   0.01267  Uiso   1.00
O4199  O     0.45607   0.42634   0.74414   0.01267  Uiso   1.00
O4200  O     0.43846   0.41609   0.80265   0.01267  Uiso   1.00
O4201  O     0.39984   0.42387   0.83161   0.01267  Uiso   1.00
O4202  O     0.36148   0.42325   0.80185   0.01267  Uiso   1.00
O4203  O     0.37064   0.42396   0.73760   0.01267  Uiso   1.00
O4204  O     0.41288   0.42280   0.75103   0.01267  Uiso   1.00
O4205  O     0.45600   0.31005   0.75061   0.01267  Uiso   1.00
O4206  O     0.43660   0.32633   0.80624   0.01267  Uiso   1.00
O4207  O     0.39662   0.32007   0.84331   0.01267  Uiso   1.00
O4208  O     0.36206   0.31240   0.80335   0.01267  Uiso   1.00
O4209  O     0.37032   0.31059   0.73931   0.01267  Uiso   1.00
O4210  O     0.41259   0.31450   0.75329   0.01267  Uiso   1.00
O4211  O     0.43735   0.36866   0.75581   0.01267  Uiso   1.00
O4212  O     0.36076   0.36770   0.76773   0.01267  Uiso   1.00
O4213  O     0.47521   0.45711   0.69393   0.01267  Uiso   1.00
O4214  O     0.46900   0.39215   0.69092   0.01267  Uiso   1.00
O4215  O     0.46652   0.32606   0.68892   0.01267  Uiso   1.00
O4216  O     0.39760   0.45904   0.70169   0.01267  Uiso   1.00
O4217  O     0.39778   0.39316   0.69693   0.01267  Uiso   1.00
O4218  O     0.39869   0.32720   0.69232   0.01267  Uiso   1.00
O4219  O     0.66378   0.41518   0.75765   0.01267  Uiso   1.00
O4220  O     0.66348   0.32198   0.75999   0.01267  Uiso   1.00
O4221  O     0.37544   0.36110   0.91505   0.01267  Uiso   1.00
O4222  O     0.39481   0.36377   0.97257   0.01267  Uiso   1.00
O4223  O     0.43237   0.36327   0.67149   0.01267  Uiso   1.00
O4224  O     0.46771   0.35975   0.96773   0.01267  Uiso   1.00
O4225  O     0.46132   0.37139   0.90428   0.01267  Uiso   1.00
O4226  O     0.41883   0.36454   0.91886   0.01267  Uiso   1.00
O4227  O     0.37667   0.47433   0.91623   0.01267  Uiso   1.00
O4228  O     0.39813   0.47056   0.97122   0.01267  Uiso   1.00
O4229  O     0.43545   0.46790   0.67074   0.01267  Uiso   1.00
O4230  O     0.47009   0.48032   0.96622   0.01267  Uiso   1.00
O4231  O     0.46247   0.46877   0.90282   0.01267  Uiso   1.00
O4232  O     0.42009   0.46633   0.91532   0.01267  Uiso   1.00
O4233  O     0.39460   0.41705   0.93342   0.01267  Uiso   1.00
O4234  O     0.47393   0.41983   0.94366   0.01267  Uiso   1.00
O4235  O     0.35638   0.32877   0.86566   0.01267  Uiso   1.00
O4236  O     0.36647   0.39284   0.85937   0.01267  Uiso   1.00
O4237  O     0.36651   0.45881   0.85470   0.01267  Uiso   1.00
O4238  O     0.43869   0.32613   0.87438   0.01267  Uiso   1.00
O4239  O     0.43097   0.38971   0.86096   0.01267  Uiso   1.00
O4240  O     0.43494   0.45522   0.85463   0.01267  Uiso   1.00
O4241  O     0.50114   0.37018   0.92696   0.01267  Uiso   1.00
O4242  O     0.50271   0.46554   0.92503   0.01267  Uiso   1.00
O4243  O     0.54427   0.17230   0.91604   0.01267  Uiso   1.00
O4244  O     0.56537   0.17728   0.86009   0.01267  Uiso   1.00
O4245  O     0.59889   0.17091   0.81827   0.01267  Uiso   1.00
O4246  O     0.63169   0.17555   0.86122   0.01267  Uiso   1.00
O4247  O     0.62896   0.16945   0.92603   0.01267  Uiso   1.00
O4248  O     0.58701   0.16160   0.91432   0.01267  Uiso   1.00
O4249  O     0.54408   0.06225   0.91217   0.01267  Uiso   1.00
O4250  O     0.56496   0.06082   0.85608   0.01267  Uiso   1.00
O4251  O     0.60191   0.06783   0.82220   0.01267  Uiso   1.00
O4252  O     0.63719   0.05878   0.85893   0.01267  Uiso   1.00
O4253  O     0.62928   0.06297   0.92286   0.01267  Uiso   1.00
O4254  O     0.58722   0.07226   0.91077   0.01267  Uiso   1.00
O4255  O     0.56013   0.11794   0.88754   0.01267  Uiso   1.00
O4256  O     0.63887   0.11729   0.88846   0.01267  Uiso   1.00
O4257  O     0.52471   0.20719   0.96249   0.01267  Uiso   1.00
O4258  O     0.53004   0.14287   0.97139   0.01267  Uiso   1.00
O4259  O     0.53109   0.07699   0.97313   0.01267  Uiso   1.00
O4260  O     0.60052   0.20684   0.95770   0.01267  Uiso   1.00
O4261  O     0.60370   0.14279   0.97191   0.01267  Uiso   1.00
O4262  O     0.60208   0.07642   0.97207   0.01267  Uiso   1.00
O4263  O     0.33402   0.16662   0.89861   0.01267  Uiso   1.00
O4264  O     0.33605   0.07178   0.90052   0.01267  Uiso   1.00
O4265  O     0.62229   0.11452   0.74986   0.01267  Uiso   1.00
O4266  O     0.60047   0.10944   0.69437   0.01267  Uiso   1.00
O4267  O     0.56678   0.11205   0.98595   0.01267  Uiso   1.00
O4268  O     0.53334   0.11054   0.69462   0.01267  Uiso   1.00
O4269  O     0.53658   0.11510   0.75928   0.01267  Uiso   1.00
O4270  O     0.57910   0.12219   0.74928   0.01267  Uiso   1.00
O4271  O     0.62203   0.22435   0.74450   0.01267  Uiso   1.00
O4272  O     0.60170   0.22320   0.68774   0.01267  Uiso   1.00
O4273  O     0.56356   0.21773   0.99025   0.01267  Uiso   1.00
O4274  O     0.52742   0.22596   0.69203   0.01267  Uiso   1.00
O4275  O     0.53647   0.22364   0.75601   0.01267  Uiso   1.00
O4276  O     0.57859   0.21721   0.74223   0.01267  Uiso   1.00
O4277  O     0.60465   0.16822   0.72321   0.01267  Uiso   1.00
O4278  O     0.52739   0.16841   0.72318   0.01267  Uiso   1.00
O4279  O     0.64127   0.07955   0.79708   0.01267  Uiso   1.00
O4280  O     0.63721   0.14447   0.80434   0.01267  Uiso   1.00
O4281  O     0.63282   0.21009   0.80650   0.01267  Uiso   1.00
O4282  O     0.56390   0.07831   0.79294   0.01267  Uiso   1.00
O4283  O     0.56099   0.14295   0.80513   0.01267  Uiso   1.00
O4284  O     0.56459   0.20906   0.80387   0.01267  Uiso   1.00
O4285  O     0.49797   0.12040   0.73233   0.01267  Uiso   1.00
O4286  O     0.49622   0.21303   0.73551   0.01267  Uiso   1.00
O4287  O     0.54349   0.36250   0.91638   0.01267  Uiso   1.00
O4288  O     0.56331   0.36150   0.85915   0.01267  Uiso   1.00
O4289  O     0.59916   0.36684   0.82224   0.01267  Uiso   1.00
O4290  O     0.63481   0.35966   0.85911   0.01267  Uiso   1.00
O4291  O     0.62871   0.36465   0.92338   0.01267  Uiso   1.00
O4292  O     0.58645   0.37251   0.91282   0.01267  Uiso   1.00
O4293  O     0.54377   0.47738   0.90867   0.01267  Uiso   1.00
O4294  O     0.56390   0.47023   0.85223   0.01267  Uiso   1.00
O4295  O     0.60231   0.46765   0.82205   0.01267  Uiso   1.00
O4296  O     0.63783   0.47701   0.85808   0.01267  Uiso   1.00
O4297  O     0.62869   0.47305   0.92199   0.01267  Uiso   1.00
O4298  O     0.58686   0.46671   0.90726   0.01267  Uiso   1.00
O4299  O     0.55893   0.41853   0.89195   0.01267  Uiso   1.00
O4300  O     0.63725   0.41861   0.88759   0.01267  Uiso   1.00
O4301  O     0.52394   0.32874   0.96385   0.01267  Uiso   1.00
O4302  O     0.52888   0.39364   0.97062   0.01267  Uiso   1.00
O4303  O     0.53414   0.45919   0.97020   0.01267  Uiso   1.00
O4304  O     0.60079   0.32780   0.95613   0.01267  Uiso   1.00
O4305  O     0.60426   0.39228   0.96927   0.01267  Uiso   1.00
O4306  O     0.60008   0.45840   0.96924   0.01267  Uiso   1.00
O4307  O     0.33463   0.37364   0.89959   0.01267  Uiso   1.00
O4308  O     0.33553   0.46271   0.90094   0.01267  Uiso   1.00
O4309  O     0.62130   0.42292   0.74921   0.01267  Uiso   1.00
O4310  O     0.60194   0.42535   0.69173   0.01267  Uiso   1.00
O4311  O     0.56690   0.41942   0.98668   0.01267  Uiso   1.00
O4312  O     0.53247   0.42698   0.69291   0.01267  Uiso   1.00
O4313  O     0.53685   0.42098   0.75760   0.01267  Uiso   1.00
O4314  O     0.57857   0.41171   0.74481   0.01267  Uiso   1.00
O4315  O     0.62285   0.30971   0.74191   0.01267  Uiso   1.00
O4316  O     0.60152   0.31298   0.68645   0.01267  Uiso   1.00
O4317  O     0.56367   0.31815   0.98822   0.01267  Uiso   1.00
O4318  O     0.52881   0.30933   0.69280   0.01267  Uiso   1.00
O4319  O     0.53754   0.31556   0.75647   0.01267  Uiso   1.00
O4320  O     0.57960   0.31945   0.74215   0.01267  Uiso   1.00
O4321  O     0.60654   0.36725   0.72239   0.01267  Uiso   1.00
O4322  O     0.52670   0.36840   0.72072   0.01267  Uiso   1.00
O4323  O     0.64145   0.45664   0.79590   0.01267  Uiso   1.00
O4324  O     0.63680   0.39163   0.80253   0.01267  Uiso   1.00
O4325  O     0.63112   0.32611   0.80407   0.01267  Uiso   1.00
O4326  O     0.56593   0.45769   0.78820   0.01267  Uiso   1.00
O4327  O     0.56206   0.39368   0.80282   0.01267  Uiso   1.00
O4328  O     0.56620   0.32769   0.80407   0.01267  Uiso   1.00
O4329  O     0.49801   0.41712   0.73207   0.01267  Uiso   1.00
O4330  O     0.49714   0.32183   0.73557   0.01267  Uiso   1.00
O4331  O     0.45653   0.10780   0.74675   0.01267  Uiso   1.00
O4332  O     0.43811   0.11555   0.80478   0.01267  Uiso   1.00
O4333  O     0.40035   0.11618   0.83740   0.01267  Uiso   1.00
O4334  O     0.36470   0.10868   0.80096   0.01267  Uiso   1.00
O4335  O     0.37112   0.11619   0.73674   0.01267  Uiso   1.00
O4336  O     0.41311   0.11441   0.75230   0.01267  Uiso   1.00
O4337  O     0.45507   0.22612   0.75071   0.01267  Uiso   1.00
O4338  O     0.43459   0.21253   0.80605   0.01267  Uiso   1.00
O4339  O     0.39747   0.21837   0.83849   0.01267  Uiso   1.00
O4340  O     0.36264   0.22763   0.80054   0.01267  Uiso   1.00
O4341  O     0.37000   0.22007   0.73646   0.01267  Uiso   1.00
O4342  O     0.41203   0.21522   0.75039   0.01267  Uiso   1.00
O4343  O     0.43968   0.16584   0.76122   0.01267  Uiso   1.00
O4344  O     0.36026   0.16797   0.77401   0.01267  Uiso   1.00
O4345  O     0.47525   0.08009   0.69465   0.01267  Uiso   1.00
O4346  O     0.46651   0.14443   0.69429   0.01267  Uiso   1.00
O4347  O     0.46531   0.21005   0.68900   0.01267  Uiso   1.00
O4348  O     0.39764   0.07670   0.70407   0.01267  Uiso   1.00
O4349  O     0.40049   0.14181   0.69597   0.01267  Uiso   1.00
O4350  O     0.39828   0.20712   0.68837   0.01267  Uiso   1.00
O4351  O     0.66474   0.12014   0.76028   0.01267  Uiso   1.00
O4352  O     0.66338   0.21347   0.75963   0.01267  Uiso   1.00
O4353  O     0.37614   0.17260   0.91160   0.01267  Uiso   1.00
O4354  O     0.39399   0.16730   0.97032   0.01267  Uiso   1.00
O4355  O     0.43259   0.17347   0.99911   0.01267  Uiso   1.00
O4356  O     0.47116   0.17373   0.96985   0.01267  Uiso   1.00
O4357  O     0.46190   0.17276   0.90579   0.01267  Uiso   1.00
O4358  O     0.41953   0.16893   0.91816   0.01267  Uiso   1.00
O4359  O     0.37650   0.05773   0.91803   0.01267  Uiso   1.00
O4360  O     0.39750   0.06810   0.97310   0.01267  Uiso   1.00
O4361  O     0.43519   0.06948   0.67181   0.01267  Uiso   1.00
O4362  O     0.46971   0.05899   0.96669   0.01267  Uiso   1.00
O4363  O     0.46202   0.06309   0.90264   0.01267  Uiso   1.00
O4364  O     0.41998   0.06312   0.91785   0.01267  Uiso   1.00
O4365  O     0.39487   0.11605   0.92828   0.01267  Uiso   1.00
O4366  O     0.47226   0.11713   0.93699   0.01267  Uiso   1.00
O4367  O     0.35811   0.20637   0.86225   0.01267  Uiso   1.00
O4368  O     0.36267   0.14097   0.85743   0.01267  Uiso   1.00
O4369  O     0.36827   0.07547   0.85609   0.01267  Uiso   1.00
O4370  O     0.43454   0.20733   0.87024   0.01267  Uiso   1.00
O4371  O     0.43614   0.14119   0.86427   0.01267  Uiso   1.00
O4372  O     0.43262   0.07614   0.85602   0.01267  Uiso   1.00
O4373  O     0.50223   0.16442   0.92605   0.01267  Uiso   1.00
O4374  O     0.50211   0.07061   0.92456   0.01267  Uiso   1.00
O4375  O     0.47730   0.26772   0.71258   0.01267  Uiso   1.00
O4376  O     0.39769   0.26626   0.71464   0.01267  Uiso   1.00
O4377  O     0.42812   0.26600   0.84334   0.01267  Uiso   1.00
O4378  O     0.36929   0.26833   0.85006   0.01267  Uiso   1.00
O4379  O     0.35554   0.01707   0.87809   0.01267  Uiso   1.00
O4380  O     0.43612   0.01576   0.87912   0.01267  Uiso   1.00
O4381  O     0.40786   0.01841   0.68006   0.01267  Uiso   1.00
O4382  O     0.46223   0.01883   0.68348   0.01267  Uiso   1.00
O4383  O     0.52323   0.01826   0.94914   0.01267  Uiso   1.00
O4384  O     0.60022   0.01810   0.94316   0.01267  Uiso   1.00
O4385  O     0.57471   0.01753   0.80952   0.01267  Uiso   1.00
O4386  O     0.62956   0.01804   0.80939   0.01267  Uiso   1.00
O4387  O     0.64315   0.26781   0.78161   0.01267  Uiso   1.00
O4388  O     0.56460   0.26858   0.77768   0.01267  Uiso   1.00
O4389  O     0.59071   0.26754   0.97564   0.01267  Uiso   1.00
O4390  O     0.53614   0.26784   0.97720   0.01267  Uiso   1.00
Si4391 Si    0.47429   0.92298   0.71529   0.01267  Uiso   1.00
Si4392 Si    0.43616   0.90810   0.76362   0.01267  Uiso   1.00
Si4393 Si    0.42594   0.92159   0.83733   0.01267  Uiso   1.00
Si4394 Si    0.37356   0.92434   0.83709   0.01267  Uiso   1.00
Si4395 Si    0.35588   0.90720   0.76630   0.01267  Uiso   1.00
Si4396 Si    0.39492   0.92442   0.72162   0.01267  Uiso   1.00
Si4397 Si    0.47414   0.80650   0.72198   0.01267  Uiso   1.00
Si4398 Si    0.43554   0.82979   0.76726   0.01267  Uiso   1.00
Si4399 Si    0.37173   0.80747   0.84037   0.01267  Uiso   1.00
Si4400 Si    0.35590   0.82808   0.76805   0.01267  Uiso   1.00
Si4401 Si    0.39490   0.80484   0.72511   0.01267  Uiso   1.00
Si4402 Si    0.35836   0.86400   0.88456   0.01267  Uiso   1.00
Si4403 Si    0.39568   0.87694   0.93510   0.01267  Uiso   1.00
Si4404 Si    0.40600   0.86181   0.67537   0.01267  Uiso   1.00
Si4405 Si    0.45873   0.86046   0.67200   0.01267  Uiso   1.00
Si4406 Si    0.47625   0.88055   0.93622   0.01267  Uiso   1.00
Si4407 Si    0.43703   0.86499   0.89039   0.01267  Uiso   1.00
Si4408 Si    0.35848   0.97821   0.88750   0.01267  Uiso   1.00
Si4409 Si    0.39739   0.95703   0.93393   0.01267  Uiso   1.00
Si4410 Si    0.40982   0.97913   0.67256   0.01267  Uiso   1.00
Si4411 Si    0.46073   0.98090   0.67029   0.01267  Uiso   1.00
Si4412 Si    0.47729   0.95876   0.93437   0.01267  Uiso   1.00
Si4413 Si    0.43829   0.97672   0.88806   0.01267  Uiso   1.00
Si4414 Si    0.52545   0.67141   0.94405   0.01267  Uiso   1.00
Si4415 Si    0.56423   0.65709   0.89463   0.01267  Uiso   1.00
Si4416 Si    0.57257   0.67508   0.82175   0.01267  Uiso   1.00
Si4417 Si    0.62513   0.67518   0.82269   0.01267  Uiso   1.00
Si4418 Si    0.64187   0.65709   0.89336   0.01267  Uiso   1.00
Si4419 Si    0.60483   0.67015   0.94259   0.01267  Uiso   1.00
Si4420 Si    0.52514   0.55719   0.93957   0.01267  Uiso   1.00
Si4421 Si    0.56418   0.57839   0.89185   0.01267  Uiso   1.00
Si4422 Si    0.57639   0.55615   0.82034   0.01267  Uiso   1.00
Si4423 Si    0.62748   0.55614   0.82200   0.01267  Uiso   1.00
Si4424 Si    0.64367   0.57794   0.89263   0.01267  Uiso   1.00
Si4425 Si    0.60468   0.55734   0.93709   0.01267  Uiso   1.00
Si4426 Si    0.64115   0.61488   0.77782   0.01267  Uiso   1.00
Si4427 Si    0.60164   0.62873   0.72932   0.01267  Uiso   1.00
Si4428 Si    0.59323   0.61020   0.98939   0.01267  Uiso   1.00
Si4429 Si    0.54042   0.61072   0.98967   0.01267  Uiso   1.00
Si4430 Si    0.52368   0.62868   0.72717   0.01267  Uiso   1.00
Si4431 Si    0.56045   0.61468   0.77666   0.01267  Uiso   1.00
Si4432 Si    0.64041   0.72884   0.77292   0.01267  Uiso   1.00
Si4433 Si    0.60175   0.70814   0.72470   0.01267  Uiso   1.00
Si4434 Si    0.58915   0.72881   0.98635   0.01267  Uiso   1.00
Si4435 Si    0.53803   0.72946   0.98902   0.01267  Uiso   1.00
Si4436 Si    0.52187   0.70759   0.72657   0.01267  Uiso   1.00
Si4437 Si    0.56118   0.72952   0.76982   0.01267  Uiso   1.00
Si4438 Si    0.52473   0.86398   0.94442   0.01267  Uiso   1.00
Si4439 Si    0.56314   0.87890   0.89504   0.01267  Uiso   1.00
Si4440 Si    0.57279   0.86228   0.82192   0.01267  Uiso   1.00
Si4441 Si    0.62540   0.86100   0.82195   0.01267  Uiso   1.00
Si4442 Si    0.64221   0.87918   0.89221   0.01267  Uiso   1.00
Si4443 Si    0.60478   0.86436   0.94050   0.01267  Uiso   1.00
Si4444 Si    0.52600   0.97989   0.93821   0.01267  Uiso   1.00
Si4445 Si    0.56352   0.95812   0.89015   0.01267  Uiso   1.00
Si4446 Si    0.57673   0.97839   0.81822   0.01267  Uiso   1.00
Si4447 Si    0.62779   0.97968   0.82134   0.01267  Uiso   1.00
Si4448 Si    0.64315   0.95764   0.89211   0.01267  Uiso   1.00
Si4449 Si    0.60394   0.97903   0.93540   0.01267  Uiso   1.00
Si4450 Si    0.64067   0.92148   0.77633   0.01267  Uiso   1.00
Si4451 Si    0.60211   0.90665   0.72707   0.01267  Uiso   1.00
Si4452 Si    0.59328   0.92401   0.98742   0.01267  Uiso   1.00
Si4453 Si    0.54069   0.92485   0.98847   0.01267  Uiso   1.00
Si4454 Si    0.56116   0.92099   0.77350   0.01267  Uiso   1.00
Si4455 Si    0.64025   0.80653   0.77189   0.01267  Uiso   1.00
Si4456 Si    0.60254   0.82747   0.72348   0.01267  Uiso   1.00
Si4457 Si    0.58920   0.80655   0.98512   0.01267  Uiso   1.00
Si4458 Si    0.53821   0.80616   0.98902   0.01267  Uiso   1.00
Si4459 Si    0.56205   0.80786   0.76995   0.01267  Uiso   1.00
Si4460 Si    0.47393   0.61342   0.71703   0.01267  Uiso   1.00
Si4461 Si    0.43674   0.62614   0.76641   0.01267  Uiso   1.00
Si4462 Si    0.42668   0.61230   0.84062   0.01267  Uiso   1.00
Si4463 Si    0.37412   0.61041   0.83813   0.01267  Uiso   1.00
Si4464 Si    0.35690   0.62842   0.76815   0.01267  Uiso   1.00
Si4465 Si    0.39571   0.61249   0.72218   0.01267  Uiso   1.00
Si4466 Si    0.47340   0.72907   0.72205   0.01267  Uiso   1.00
Si4467 Si    0.43520   0.70511   0.76726   0.01267  Uiso   1.00
Si4468 Si    0.42361   0.72722   0.83953   0.01267  Uiso   1.00
Si4469 Si    0.37209   0.73032   0.83783   0.01267  Uiso   1.00
Si4470 Si    0.35580   0.70724   0.76782   0.01267  Uiso   1.00
Si4471 Si    0.39456   0.72713   0.72263   0.01267  Uiso   1.00
Si4472 Si    0.35806   0.67162   0.88239   0.01267  Uiso   1.00
Si4473 Si    0.39614   0.65617   0.93211   0.01267  Uiso   1.00
Si4474 Si    0.40637   0.67253   0.67191   0.01267  Uiso   1.00
Si4475 Si    0.45874   0.67523   0.67160   0.01267  Uiso   1.00
Si4476 Si    0.47672   0.65682   0.93468   0.01267  Uiso   1.00
Si4477 Si    0.43774   0.67253   0.88919   0.01267  Uiso   1.00
Si4478 Si    0.35903   0.55568   0.88807   0.01267  Uiso   1.00
Si4479 Si    0.39733   0.57646   0.93422   0.01267  Uiso   1.00
Si4480 Si    0.40960   0.55798   0.67376   0.01267  Uiso   1.00
Si4481 Si    0.46055   0.55698   0.67070   0.01267  Uiso   1.00
Si4482 Si    0.47650   0.57764   0.93282   0.01267  Uiso   1.00
Si4483 Si    0.43762   0.55476   0.88899   0.01267  Uiso   1.00
Si4484 Si    0.52350   0.90816   0.72564   0.01267  Uiso   1.00
Si4485 Si    0.52257   0.82902   0.72631   0.01267  Uiso   1.00
Al4486 Al    0.42333   0.80751   0.83856   0.01267  Uiso   1.00
O4487  O     0.45607   0.92634   0.74414   0.01267  Uiso   1.00
O4488  O     0.43846   0.91609   0.80265   0.01267  Uiso   1.00
O4489  O     0.39984   0.92387   0.83161   0.01267  Uiso   1.00
O4490  O     0.36148   0.92325   0.80185   0.01267  Uiso   1.00
O4491  O     0.37064   0.92396   0.73760   0.01267  Uiso   1.00
O4492  O     0.41288   0.92280   0.75103   0.01267  Uiso   1.00
O4493  O     0.45600   0.81005   0.75061   0.01267  Uiso   1.00
O4494  O     0.43660   0.82633   0.80624   0.01267  Uiso   1.00
O4495  O     0.39662   0.82007   0.84331   0.01267  Uiso   1.00
O4496  O     0.36206   0.81240   0.80335   0.01267  Uiso   1.00
O4497  O     0.37032   0.81059   0.73931   0.01267  Uiso   1.00
O4498  O     0.41259   0.81450   0.75329   0.01267  Uiso   1.00
O4499  O     0.43735   0.86866   0.75581   0.01267  Uiso   1.00
O4500  O     0.36076   0.86770   0.76773   0.01267  Uiso   1.00
O4501  O     0.47521   0.95711   0.69393   0.01267  Uiso   1.00
O4502  O     0.46900   0.89215   0.69092   0.01267  Uiso   1.00
O4503  O     0.46652   0.82606   0.68892   0.01267  Uiso   1.00
O4504  O     0.39760   0.95904   0.70169   0.01267  Uiso   1.00
O4505  O     0.39778   0.89316   0.69693   0.01267  Uiso   1.00
O4506  O     0.39869   0.82720   0.69232   0.01267  Uiso   1.00
O4507  O     0.66378   0.91518   0.75765   0.01267  Uiso   1.00
O4508  O     0.66348   0.82198   0.75999   0.01267  Uiso   1.00
O4509  O     0.37544   0.86110   0.91505   0.01267  Uiso   1.00
O4510  O     0.39481   0.86377   0.97257   0.01267  Uiso   1.00
O4511  O     0.43237   0.86327   0.67149   0.01267  Uiso   1.00
O4512  O     0.46771   0.85975   0.96773   0.01267  Uiso   1.00
O4513  O     0.46132   0.87139   0.90428   0.01267  Uiso   1.00
O4514  O     0.41883   0.86454   0.91886   0.01267  Uiso   1.00
O4515  O     0.37667   0.97433   0.91623   0.01267  Uiso   1.00
O4516  O     0.39813   0.97056   0.97122   0.01267  Uiso   1.00
O4517  O     0.43545   0.96790   0.67074   0.01267  Uiso   1.00
O4518  O     0.47009   0.98032   0.96622   0.01267  Uiso   1.00
O4519  O     0.46247   0.96877   0.90282   0.01267  Uiso   1.00
O4520  O     0.42009   0.96633   0.91532   0.01267  Uiso   1.00
O4521  O     0.39460   0.91705   0.93342   0.01267  Uiso   1.00
O4522  O     0.47393   0.91983   0.94366   0.01267  Uiso   1.00
O4523  O     0.35638   0.82877   0.86566   0.01267  Uiso   1.00
O4524  O     0.36647   0.89284   0.85937   0.01267  Uiso   1.00
O4525  O     0.36651   0.95881   0.85470   0.01267  Uiso   1.00
O4526  O     0.43869   0.82613   0.87438   0.01267  Uiso   1.00
O4527  O     0.43097   0.88971   0.86096   0.01267  Uiso   1.00
O4528  O     0.43494   0.95522   0.85463   0.01267  Uiso   1.00
O4529  O     0.50114   0.87018   0.92696   0.01267  Uiso   1.00
O4530  O     0.50271   0.96554   0.92503   0.01267  Uiso   1.00
O4531  O     0.54427   0.67230   0.91604   0.01267  Uiso   1.00
O4532  O     0.56537   0.67728   0.86009   0.01267  Uiso   1.00
O4533  O     0.59889   0.67091   0.81827   0.01267  Uiso   1.00
O4534  O     0.63169   0.67555   0.86122   0.01267  Uiso   1.00
O4535  O     0.62896   0.66945   0.92603   0.01267  Uiso   1.00
O4536  O     0.58701   0.66160   0.91432   0.01267  Uiso   1.00
O4537  O     0.54408   0.56225   0.91217   0.01267  Uiso   1.00
O4538  O     0.56496   0.56082   0.85608   0.01267  Uiso   1.00
O4539  O     0.60191   0.56783   0.82220   0.01267  Uiso   1.00
O4540  O     0.63719   0.55878   0.85893   0.01267  Uiso   1.00
O4541  O     0.62928   0.56297   0.92286   0.01267  Uiso   1.00
O4542  O     0.58722   0.57226   0.91077   0.01267  Uiso   1.00
O4543  O     0.56013   0.61794   0.88754   0.01267  Uiso   1.00
O4544  O     0.63887   0.61729   0.88846   0.01267  Uiso   1.00
O4545  O     0.52471   0.70719   0.96249   0.01267  Uiso   1.00
O4546  O     0.53004   0.64287   0.97139   0.01267  Uiso   1.00
O4547  O     0.53109   0.57699   0.97313   0.01267  Uiso   1.00
O4548  O     0.60052   0.70684   0.95770   0.01267  Uiso   1.00
O4549  O     0.60370   0.64279   0.97191   0.01267  Uiso   1.00
O4550  O     0.60208   0.57642   0.97207   0.01267  Uiso   1.00
O4551  O     0.33402   0.66662   0.89861   0.01267  Uiso   1.00
O4552  O     0.33605   0.57178   0.90052   0.01267  Uiso   1.00
O4553  O     0.62229   0.61452   0.74986   0.01267  Uiso   1.00
O4554  O     0.60047   0.60944   0.69437   0.01267  Uiso   1.00
O4555  O     0.56678   0.61205   0.98595   0.01267  Uiso   1.00
O4556  O     0.53334   0.61054   0.69462   0.01267  Uiso   1.00
O4557  O     0.53658   0.61510   0.75928   0.01267  Uiso   1.00
O4558  O     0.57910   0.62219   0.74928   0.01267  Uiso   1.00
O4559  O     0.62203   0.72435   0.74450   0.01267  Uiso   1.00
O4560  O     0.60170   0.72320   0.68774   0.01267  Uiso   1.00
O4561  O     0.56356   0.71773   0.99025   0.01267  Uiso   1.00
O4562  O     0.52742   0.72596   0.69203   0.01267  Uiso   1.00
O4563  O     0.53647   0.72364   0.75601   0.01267  Uiso   1.00
O4564  O     0.57859   0.71721   0.74223   0.01267  Uiso   1.00
O4565  O     0.60465   0.66822   0.72321   0.01267  Uiso   1.00
O4566  O     0.52739   0.66841   0.72318   0.01267  Uiso   1.00
O4567  O     0.64127   0.57955   0.79708   0.01267  Uiso   1.00
O4568  O     0.63721   0.64447   0.80434   0.01267  Uiso   1.00
O4569  O     0.63282   0.71009   0.80650   0.01267  Uiso   1.00
O4570  O     0.56390   0.57831   0.79294   0.01267  Uiso   1.00
O4571  O     0.56099   0.64295   0.80513   0.01267  Uiso   1.00
O4572  O     0.56459   0.70906   0.80387   0.01267  Uiso   1.00
O4573  O     0.49797   0.62040   0.73233   0.01267  Uiso   1.00
O4574  O     0.49622   0.71303   0.73551   0.01267  Uiso   1.00
O4575  O     0.54349   0.86250   0.91638   0.01267  Uiso   1.00
O4576  O     0.56331   0.86150   0.85915   0.01267  Uiso   1.00
O4577  O     0.59916   0.86684   0.82224   0.01267  Uiso   1.00
O4578  O     0.63481   0.85966   0.85911   0.01267  Uiso   1.00
O4579  O     0.62871   0.86465   0.92338   0.01267  Uiso   1.00
O4580  O     0.58645   0.87251   0.91282   0.01267  Uiso   1.00
O4581  O     0.54377   0.97738   0.90867   0.01267  Uiso   1.00
O4582  O     0.56390   0.97023   0.85223   0.01267  Uiso   1.00
O4583  O     0.60231   0.96765   0.82205   0.01267  Uiso   1.00
O4584  O     0.63783   0.97701   0.85808   0.01267  Uiso   1.00
O4585  O     0.62869   0.97304   0.92199   0.01267  Uiso   1.00
O4586  O     0.58686   0.96671   0.90726   0.01267  Uiso   1.00
O4587  O     0.55893   0.91853   0.89195   0.01267  Uiso   1.00
O4588  O     0.63725   0.91861   0.88759   0.01267  Uiso   1.00
O4589  O     0.52394   0.82874   0.96385   0.01267  Uiso   1.00
O4590  O     0.52888   0.89364   0.97062   0.01267  Uiso   1.00
O4591  O     0.53414   0.95919   0.97020   0.01267  Uiso   1.00
O4592  O     0.60079   0.82780   0.95613   0.01267  Uiso   1.00
O4593  O     0.60426   0.89228   0.96927   0.01267  Uiso   1.00
O4594  O     0.60008   0.95840   0.96924   0.01267  Uiso   1.00
O4595  O     0.33463   0.87364   0.89959   0.01267  Uiso   1.00
O4596  O     0.33553   0.96271   0.90094   0.01267  Uiso   1.00
O4597  O     0.62130   0.92292   0.74921   0.01267  Uiso   1.00
O4598  O     0.60194   0.92535   0.69173   0.01267  Uiso   1.00
O4599  O     0.56690   0.91942   0.98668   0.01267  Uiso   1.00
O4600  O     0.53247   0.92698   0.69291   0.01267  Uiso   1.00
O4601  O     0.53685   0.92098   0.75760   0.01267  Uiso   1.00
O4602  O     0.57857   0.91171   0.74481   0.01267  Uiso   1.00
O4603  O     0.62285   0.80971   0.74191   0.01267  Uiso   1.00
O4604  O     0.60152   0.81298   0.68645   0.01267  Uiso   1.00
O4605  O     0.56367   0.81815   0.98822   0.01267  Uiso   1.00
O4606  O     0.52881   0.80933   0.69280   0.01267  Uiso   1.00
O4607  O     0.53754   0.81556   0.75647   0.01267  Uiso   1.00
O4608  O     0.57960   0.81945   0.74215   0.01267  Uiso   1.00
O4609  O     0.60654   0.86725   0.72239   0.01267  Uiso   1.00
O4610  O     0.52670   0.86840   0.72072   0.01267  Uiso   1.00
O4611  O     0.64145   0.95664   0.79590   0.01267  Uiso   1.00
O4612  O     0.63680   0.89163   0.80253   0.01267  Uiso   1.00
O4613  O     0.63112   0.82611   0.80407   0.01267  Uiso   1.00
O4614  O     0.56593   0.95769   0.78820   0.01267  Uiso   1.00
O4615  O     0.56206   0.89368   0.80282   0.01267  Uiso   1.00
O4616  O     0.56620   0.82769   0.80407   0.01267  Uiso   1.00
O4617  O     0.49801   0.91712   0.73207   0.01267  Uiso   1.00
O4618  O     0.49714   0.82183   0.73557   0.01267  Uiso   1.00
O4619  O     0.45653   0.60780   0.74675   0.01267  Uiso   1.00
O4620  O     0.43811   0.61555   0.80478   0.01267  Uiso   1.00
O4621  O     0.40035   0.61618   0.83740   0.01267  Uiso   1.00
O4622  O     0.36470   0.60868   0.80096   0.01267  Uiso   1.00
O4623  O     0.37112   0.61619   0.73674   0.01267  Uiso   1.00
O4624  O     0.41311   0.61441   0.75230   0.01267  Uiso   1.00
O4625  O     0.45507   0.72612   0.75071   0.01267  Uiso   1.00
O4626  O     0.43459   0.71253   0.80605   0.01267  Uiso   1.00
O4627  O     0.39747   0.71837   0.83849   0.01267  Uiso   1.00
O4628  O     0.36264   0.72763   0.80054   0.01267  Uiso   1.00
O4629  O     0.37000   0.72007   0.73646   0.01267  Uiso   1.00
O4630  O     0.41203   0.71522   0.75039   0.01267  Uiso   1.00
O4631  O     0.43968   0.66584   0.76122   0.01267  Uiso   1.00
O4632  O     0.36026   0.66797   0.77401   0.01267  Uiso   1.00
O4633  O     0.47525   0.58009   0.69465   0.01267  Uiso   1.00
O4634  O     0.46651   0.64443   0.69429   0.01267  Uiso   1.00
O4635  O     0.46531   0.71005   0.68900   0.01267  Uiso   1.00
O4636  O     0.39764   0.57670   0.70407   0.01267  Uiso   1.00
O4637  O     0.40049   0.64181   0.69597   0.01267  Uiso   1.00
O4638  O     0.39828   0.70712   0.68837   0.01267  Uiso   1.00
O4639  O     0.66474   0.62014   0.76028   0.01267  Uiso   1.00
O4640  O     0.66338   0.71347   0.75963   0.01267  Uiso   1.00
O4641  O     0.37614   0.67260   0.91160   0.01267  Uiso   1.00
O4642  O     0.39399   0.66730   0.97032   0.01267  Uiso   1.00
O4643  O     0.43259   0.67347   0.99911   0.01267  Uiso   1.00
O4644  O     0.47116   0.67373   0.96985   0.01267  Uiso   1.00
O4645  O     0.46190   0.67276   0.90579   0.01267  Uiso   1.00
O4646  O     0.41953   0.66893   0.91816   0.01267  Uiso   1.00
O4647  O     0.37650   0.55773   0.91803   0.01267  Uiso   1.00
O4648  O     0.39750   0.56810   0.97310   0.01267  Uiso   1.00
O4649  O     0.43519   0.56948   0.67181   0.01267  Uiso   1.00
O4650  O     0.46971   0.55899   0.96669   0.01267  Uiso   1.00
O4651  O     0.46202   0.56309   0.90264   0.01267  Uiso   1.00
O4652  O     0.41998   0.56312   0.91785   0.01267  Uiso   1.00
O4653  O     0.39487   0.61605   0.92828   0.01267  Uiso   1.00
O4654  O     0.47226   0.61713   0.93699   0.01267  Uiso   1.00
O4655  O     0.35811   0.70637   0.86225   0.01267  Uiso   1.00
O4656  O     0.36267   0.64097   0.85743   0.01267  Uiso   1.00
O4657  O     0.36827   0.57547   0.85609   0.01267  Uiso   1.00
O4658  O     0.43454   0.70733   0.87024   0.01267  Uiso   1.00
O4659  O     0.43614   0.64119   0.86427   0.01267  Uiso   1.00
O4660  O     0.43262   0.57614   0.85602   0.01267  Uiso   1.00
O4661  O     0.50223   0.66442   0.92605   0.01267  Uiso   1.00
O4662  O     0.50211   0.57061   0.92456   0.01267  Uiso   1.00
O4663  O     0.47730   0.76772   0.71258   0.01267  Uiso   1.00
O4664  O     0.39769   0.76626   0.71464   0.01267  Uiso   1.00
O4665  O     0.42812   0.76600   0.84334   0.01267  Uiso   1.00
O4666  O     0.36929   0.76833   0.85006   0.01267  Uiso   1.00
O4667  O     0.35554   0.51707   0.87809   0.01267  Uiso   1.00
O4668  O     0.43612   0.51576   0.87912   0.01267  Uiso   1.00
O4669  O     0.40786   0.51841   0.68006   0.01267  Uiso   1.00
O4670  O     0.46223   0.51882   0.68348   0.01267  Uiso   1.00
O4671  O     0.52323   0.51826   0.94914   0.01267  Uiso   1.00
O4672  O     0.60022   0.51810   0.94316   0.01267  Uiso   1.00
O4673  O     0.57471   0.51753   0.80952   0.01267  Uiso   1.00
O4674  O     0.62956   0.51804   0.80939   0.01267  Uiso   1.00
O4675  O     0.64315   0.76781   0.78161   0.01267  Uiso   1.00
O4676  O     0.56460   0.76858   0.77768   0.01267  Uiso   1.00
O4677  O     0.59071   0.76754   0.97564   0.01267  Uiso   1.00
O4678  O     0.53614   0.76784   0.97720   0.01267  Uiso   1.00
H4679  H     0.45356   0.81610   0.87642   0.01267  Uiso   1.00
H4680  H     0.51077   0.76431   0.79676   0.01267  Uiso   1.00
H4681  H     0.48677   0.81753   0.80946   0.01267  Uiso   1.00
H4682  H     0.52234   0.73341   0.85143   0.01267  Uiso   1.00
H4683  H     0.50676   0.76396   0.90414   0.01267  Uiso   1.00
C4684  C     0.51224   0.75567   0.85078   0.01267  Uiso   1.00
C4685  C     0.50439   0.77085   0.87856   0.01267  Uiso   1.00
C4686  C     0.50611   0.77245   0.82129   0.01267  Uiso   1.00
C4687  C     0.49379   0.80027   0.82704   0.01267  Uiso   1.00
S4688  S     0.49015   0.80629   0.86853   0.01267  Uiso   1.00
Si4689 Si    0.80762   0.42298   0.71529   0.01267  Uiso   1.00
Si4690 Si    0.76949   0.40810   0.76362   0.01267  Uiso   1.00
Si4691 Si    0.75927   0.42159   0.83733   0.01267  Uiso   1.00
Si4692 Si    0.70690   0.42434   0.83709   0.01267  Uiso   1.00
Si4693 Si    0.68922   0.40720   0.76630   0.01267  Uiso   1.00
Si4694 Si    0.72825   0.42442   0.72162   0.01267  Uiso   1.00
Si4695 Si    0.80747   0.30650   0.72198   0.01267  Uiso   1.00
Si4696 Si    0.76888   0.32979   0.76726   0.01267  Uiso   1.00
Si4697 Si    0.70507   0.30747   0.84037   0.01267  Uiso   1.00
Si4698 Si    0.68923   0.32808   0.76805   0.01267  Uiso   1.00
Si4699 Si    0.72823   0.30484   0.72511   0.01267  Uiso   1.00
Si4700 Si    0.69169   0.36400   0.88456   0.01267  Uiso   1.00
Si4701 Si    0.72901   0.37694   0.93510   0.01267  Uiso   1.00
Si4702 Si    0.73934   0.36181   0.67537   0.01267  Uiso   1.00
Si4703 Si    0.79206   0.36046   0.67200   0.01267  Uiso   1.00
Si4704 Si    0.80959   0.38055   0.93622   0.01267  Uiso   1.00
Si4705 Si    0.77036   0.36499   0.89039   0.01267  Uiso   1.00
Si4706 Si    0.69182   0.47821   0.88750   0.01267  Uiso   1.00
Si4707 Si    0.73073   0.45703   0.93393   0.01267  Uiso   1.00
Si4708 Si    0.74315   0.47913   0.67256   0.01267  Uiso   1.00
Si4709 Si    0.79406   0.48090   0.67029   0.01267  Uiso   1.00
Si4710 Si    0.81062   0.45876   0.93437   0.01267  Uiso   1.00
Si4711 Si    0.77163   0.47672   0.88806   0.01267  Uiso   1.00
Si4712 Si    0.85878   0.17141   0.94405   0.01267  Uiso   1.00
Si4713 Si    0.89756   0.15709   0.89463   0.01267  Uiso   1.00
Si4714 Si    0.90590   0.17508   0.82175   0.01267  Uiso   1.00
Si4715 Si    0.95846   0.17518   0.82269   0.01267  Uiso   1.00
Si4716 Si    0.97520   0.15709   0.89336   0.01267  Uiso   1.00
Si4717 Si    0.93817   0.17015   0.94259   0.01267  Uiso   1.00
Si4718 Si    0.85847   0.05719   0.93957   0.01267  Uiso   1.00
Si4719 Si    0.89751   0.07839   0.89185   0.01267  Uiso   1.00
Si4720 Si    0.90972   0.05615   0.82034   0.01267  Uiso   1.00
Si4721 Si    0.96081   0.05614   0.82200   0.01267  Uiso   1.00
Si4722 Si    0.97700   0.07794   0.89263   0.01267  Uiso   1.00
Si4723 Si    0.93802   0.05734   0.93709   0.01267  Uiso   1.00
Si4724 Si    0.97448   0.11488   0.77782   0.01267  Uiso   1.00
Si4725 Si    0.93497   0.12873   0.72932   0.01267  Uiso   1.00
Si4726 Si    0.92656   0.11020   0.98939   0.01267  Uiso   1.00
Si4727 Si    0.87376   0.11072   0.98967   0.01267  Uiso   1.00
Si4728 Si    0.85701   0.12868   0.72717   0.01267  Uiso   1.00
Si4729 Si    0.89378   0.11468   0.77666   0.01267  Uiso   1.00
Si4730 Si    0.97375   0.22884   0.77292   0.01267  Uiso   1.00
Si4731 Si    0.93508   0.20814   0.72470   0.01267  Uiso   1.00
Si4732 Si    0.92248   0.22881   0.98635   0.01267  Uiso   1.00
Si4733 Si    0.87137   0.22946   0.98902   0.01267  Uiso   1.00
Si4734 Si    0.85521   0.20759   0.72657   0.01267  Uiso   1.00
Si4735 Si    0.89452   0.22952   0.76982   0.01267  Uiso   1.00
Si4736 Si    0.85806   0.36398   0.94442   0.01267  Uiso   1.00
Si4737 Si    0.89647   0.37890   0.89504   0.01267  Uiso   1.00
Si4738 Si    0.90612   0.36228   0.82192   0.01267  Uiso   1.00
Si4739 Si    0.95874   0.36100   0.82195   0.01267  Uiso   1.00
Si4740 Si    0.97555   0.37918   0.89221   0.01267  Uiso   1.00
Si4741 Si    0.93811   0.36436   0.94050   0.01267  Uiso   1.00
Si4742 Si    0.85934   0.47989   0.93821   0.01267  Uiso   1.00
Si4743 Si    0.89685   0.45812   0.89015   0.01267  Uiso   1.00
Si4744 Si    0.91006   0.47839   0.81822   0.01267  Uiso   1.00
Si4745 Si    0.96112   0.47968   0.82134   0.01267  Uiso   1.00
Si4746 Si    0.97649   0.45764   0.89211   0.01267  Uiso   1.00
Si4747 Si    0.93727   0.47903   0.93540   0.01267  Uiso   1.00
Si4748 Si    0.97400   0.42148   0.77633   0.01267  Uiso   1.00
Si4749 Si    0.93544   0.40665   0.72707   0.01267  Uiso   1.00
Si4750 Si    0.92662   0.42401   0.98742   0.01267  Uiso   1.00
Si4751 Si    0.87403   0.42485   0.98847   0.01267  Uiso   1.00
Si4752 Si    0.89449   0.42099   0.77350   0.01267  Uiso   1.00
Si4753 Si    0.97359   0.30653   0.77189   0.01267  Uiso   1.00
Si4754 Si    0.93587   0.32747   0.72348   0.01267  Uiso   1.00
Si4755 Si    0.92253   0.30655   0.98512   0.01267  Uiso   1.00
Si4756 Si    0.87154   0.30616   0.98902   0.01267  Uiso   1.00
Si4757 Si    0.89539   0.30786   0.76995   0.01267  Uiso   1.00
Si4758 Si    0.80727   0.11342   0.71703   0.01267  Uiso   1.00
Si4759 Si    0.77008   0.12614   0.76641   0.01267  Uiso   1.00
Si4760 Si    0.76001   0.11230   0.84062   0.01267  Uiso   1.00
Si4761 Si    0.70745   0.11041   0.83813   0.01267  Uiso   1.00
Si4762 Si    0.69023   0.12842   0.76815   0.01267  Uiso   1.00
Si4763 Si    0.72904   0.11249   0.72218   0.01267  Uiso   1.00
Si4764 Si    0.80673   0.22907   0.72205   0.01267  Uiso   1.00
Si4765 Si    0.76853   0.20511   0.76726   0.01267  Uiso   1.00
Si4766 Si    0.75695   0.22722   0.83953   0.01267  Uiso   1.00
Si4767 Si    0.70543   0.23032   0.83783   0.01267  Uiso   1.00
Si4768 Si    0.68913   0.20724   0.76782   0.01267  Uiso   1.00
Si4769 Si    0.72789   0.22713   0.72263   0.01267  Uiso   1.00
Si4770 Si    0.69139   0.17162   0.88239   0.01267  Uiso   1.00
Si4771 Si    0.72948   0.15617   0.93211   0.01267  Uiso   1.00
Si4772 Si    0.73970   0.17253   0.67191   0.01267  Uiso   1.00
Si4773 Si    0.79207   0.17523   0.67160   0.01267  Uiso   1.00
Si4774 Si    0.81005   0.15682   0.93468   0.01267  Uiso   1.00
Si4775 Si    0.77107   0.17253   0.88919   0.01267  Uiso   1.00
Si4776 Si    0.69236   0.05568   0.88807   0.01267  Uiso   1.00
Si4777 Si    0.73067   0.07646   0.93422   0.01267  Uiso   1.00
Si4778 Si    0.74294   0.05798   0.67376   0.01267  Uiso   1.00
Si4779 Si    0.79389   0.05698   0.67070   0.01267  Uiso   1.00
Si4780 Si    0.80983   0.07764   0.93282   0.01267  Uiso   1.00
Si4781 Si    0.77095   0.05476   0.88899   0.01267  Uiso   1.00
Si4782 Si    0.85683   0.40816   0.72564   0.01267  Uiso   1.00
Si4783 Si    0.85591   0.32902   0.72631   0.01267  Uiso   1.00
Al4784 Al    0.75667   0.30751   0.83856   0.01267  Uiso   1.00
O4785  O     0.78940   0.42634   0.74414   0.01267  Uiso   1.00
O4786  O     0.77179   0.41609   0.80265   0.01267  Uiso   1.00
O4787  O     0.73318   0.42387   0.83161   0.01267  Uiso   1.00
O4788  O     0.69481   0.42325   0.80185   0.01267  Uiso   1.00
O4789  O     0.70397   0.42396   0.73760   0.01267  Uiso   1.00
O4790  O     0.74621   0.42280   0.75103   0.01267  Uiso   1.00
O4791  O     0.78933   0.31005   0.75061   0.01267  Uiso   1.00
O4792  O     0.76993   0.32633   0.80624   0.01267  Uiso   1.00
O4793  O     0.72996   0.32007   0.84331   0.01267  Uiso   1.00
O4794  O     0.69539   0.31240   0.80335   0.01267  Uiso   1.00
O4795  O     0.70365   0.31059   0.73931   0.01267  Uiso   1.00
O4796  O     0.74593   0.31450   0.75329   0.01267  Uiso   1.00
O4797  O     0.77068   0.36866   0.75581   0.01267  Uiso   1.00
O4798  O     0.69409   0.36770   0.76773   0.01267  Uiso   1.00
O4799  O     0.80855   0.45711   0.69393   0.01267  Uiso   1.00
O4800  O     0.80233   0.39215   0.69092   0.01267  Uiso   1.00
O4801  O     0.79986   0.32606   0.68892   0.01267  Uiso   1.00
O4802  O     0.73094   0.45904   0.70169   0.01267  Uiso   1.00
O4803  O     0.73112   0.39316   0.69693   0.01267  Uiso   1.00
O4804  O     0.73202   0.32720   0.69232   0.01267  Uiso   1.00
O4805  O     0.99711   0.41518   0.75765   0.01267  Uiso   1.00
O4806  O     0.99681   0.32198   0.75999   0.01267  Uiso   1.00
O4807  O     0.70878   0.36110   0.91505   0.01267  Uiso   1.00
O4808  O     0.72814   0.36377   0.97257   0.01267  Uiso   1.00
O4809  O     0.76571   0.36327   0.67149   0.01267  Uiso   1.00
O4810  O     0.80104   0.35975   0.96773   0.01267  Uiso   1.00
O4811  O     0.79466   0.37139   0.90428   0.01267  Uiso   1.00
O4812  O     0.75216   0.36454   0.91886   0.01267  Uiso   1.00
O4813  O     0.71000   0.47433   0.91623   0.01267  Uiso   1.00
O4814  O     0.73146   0.47056   0.97122   0.01267  Uiso   1.00
O4815  O     0.76878   0.46790   0.67074   0.01267  Uiso   1.00
O4816  O     0.80342   0.48032   0.96622   0.01267  Uiso   1.00
O4817  O     0.79580   0.46877   0.90282   0.01267  Uiso   1.00
O4818  O     0.75343   0.46633   0.91532   0.01267  Uiso   1.00
O4819  O     0.72793   0.41705   0.93342   0.01267  Uiso   1.00
O4820  O     0.80726   0.41983   0.94366   0.01267  Uiso   1.00
O4821  O     0.68971   0.32877   0.86566   0.01267  Uiso   1.00
O4822  O     0.69981   0.39284   0.85937   0.01267  Uiso   1.00
O4823  O     0.69984   0.45881   0.85470   0.01267  Uiso   1.00
O4824  O     0.77202   0.32613   0.87438   0.01267  Uiso   1.00
O4825  O     0.76430   0.38971   0.86096   0.01267  Uiso   1.00
O4826  O     0.76828   0.45522   0.85463   0.01267  Uiso   1.00
O4827  O     0.83447   0.37018   0.92696   0.01267  Uiso   1.00
O4828  O     0.83605   0.46554   0.92503   0.01267  Uiso   1.00
O4829  O     0.87760   0.17230   0.91604   0.01267  Uiso   1.00
O4830  O     0.89870   0.17728   0.86009   0.01267  Uiso   1.00
O4831  O     0.93222   0.17091   0.81827   0.01267  Uiso   1.00
O4832  O     0.96503   0.17555   0.86122   0.01267  Uiso   1.00
O4833  O     0.96230   0.16945   0.92603   0.01267  Uiso   1.00
O4834  O     0.92035   0.16160   0.91432   0.01267  Uiso   1.00
O4835  O     0.87741   0.06225   0.91217   0.01267  Uiso   1.00
O4836  O     0.89829   0.06082   0.85608   0.01267  Uiso   1.00
O4837  O     0.93525   0.06783   0.82220   0.01267  Uiso   1.00
O4838  O     0.97052   0.05878   0.85893   0.01267  Uiso   1.00
O4839  O     0.96261   0.06297   0.92286   0.01267  Uiso   1.00
O4840  O     0.92056   0.07226   0.91077   0.01267  Uiso   1.00
O4841  O     0.89347   0.11794   0.88754   0.01267  Uiso   1.00
O4842  O     0.97221   0.11729   0.88846   0.01267  Uiso   1.00
O4843  O     0.85805   0.20719   0.96249   0.01267  Uiso   1.00
O4844  O     0.86338   0.14287   0.97139   0.01267  Uiso   1.00
O4845  O     0.86442   0.07699   0.97313   0.01267  Uiso   1.00
O4846  O     0.93385   0.20684   0.95770   0.01267  Uiso   1.00
O4847  O     0.93704   0.14279   0.97191   0.01267  Uiso   1.00
O4848  O     0.93541   0.07642   0.97207   0.01267  Uiso   1.00
O4849  O     0.66736   0.16662   0.89861   0.01267  Uiso   1.00
O4850  O     0.66938   0.07178   0.90052   0.01267  Uiso   1.00
O4851  O     0.95563   0.11452   0.74986   0.01267  Uiso   1.00
O4852  O     0.93380   0.10944   0.69437   0.01267  Uiso   1.00
O4853  O     0.90012   0.11205   0.98595   0.01267  Uiso   1.00
O4854  O     0.86667   0.11054   0.69462   0.01267  Uiso   1.00
O4855  O     0.86992   0.11510   0.75928   0.01267  Uiso   1.00
O4856  O     0.91244   0.12219   0.74928   0.01267  Uiso   1.00
O4857  O     0.95537   0.22435   0.74450   0.01267  Uiso   1.00
O4858  O     0.93503   0.22320   0.68774   0.01267  Uiso   1.00
O4859  O     0.89689   0.21773   0.99025   0.01267  Uiso   1.00
O4860  O     0.86075   0.22596   0.69203   0.01267  Uiso   1.00
O4861  O     0.86980   0.22364   0.75601   0.01267  Uiso   1.00
O4862  O     0.91192   0.21721   0.74223   0.01267  Uiso   1.00
O4863  O     0.93798   0.16822   0.72321   0.01267  Uiso   1.00
O4864  O     0.86073   0.16841   0.72318   0.01267  Uiso   1.00
O4865  O     0.97460   0.07955   0.79708   0.01267  Uiso   1.00
O4866  O     0.97054   0.14447   0.80434   0.01267  Uiso   1.00
O4867  O     0.96616   0.21009   0.80650   0.01267  Uiso   1.00
O4868  O     0.89723   0.07831   0.79294   0.01267  Uiso   1.00
O4869  O     0.89432   0.14295   0.80513   0.01267  Uiso   1.00
O4870  O     0.89792   0.20906   0.80387   0.01267  Uiso   1.00
O4871  O     0.83130   0.12040   0.73233   0.01267  Uiso   1.00
O4872  O     0.82955   0.21303   0.73551   0.01267  Uiso   1.00
O4873  O     0.87683   0.36250   0.91638   0.01267  Uiso   1.00
O4874  O     0.89664   0.36150   0.85915   0.01267  Uiso   1.00
O4875  O     0.93249   0.36684   0.82224   0.01267  Uiso   1.00
O4876  O     0.96814   0.35966   0.85911   0.01267  Uiso   1.00
O4877  O     0.96205   0.36465   0.92338   0.01267  Uiso   1.00
O4878  O     0.91978   0.37251   0.91282   0.01267  Uiso   1.00
O4879  O     0.87710   0.47738   0.90867   0.01267  Uiso   1.00
O4880  O     0.89724   0.47023   0.85223   0.01267  Uiso   1.00
O4881  O     0.93565   0.46765   0.82205   0.01267  Uiso   1.00
O4882  O     0.97117   0.47701   0.85808   0.01267  Uiso   1.00
O4883  O     0.96203   0.47305   0.92199   0.01267  Uiso   1.00
O4884  O     0.92019   0.46671   0.90726   0.01267  Uiso   1.00
O4885  O     0.89227   0.41853   0.89195   0.01267  Uiso   1.00
O4886  O     0.97058   0.41861   0.88759   0.01267  Uiso   1.00
O4887  O     0.85728   0.32874   0.96385   0.01267  Uiso   1.00
O4888  O     0.86221   0.39364   0.97062   0.01267  Uiso   1.00
O4889  O     0.86748   0.45919   0.97020   0.01267  Uiso   1.00
O4890  O     0.93413   0.32780   0.95613   0.01267  Uiso   1.00
O4891  O     0.93759   0.39228   0.96927   0.01267  Uiso   1.00
O4892  O     0.93342   0.45840   0.96924   0.01267  Uiso   1.00
O4893  O     0.66796   0.37364   0.89959   0.01267  Uiso   1.00
O4894  O     0.66887   0.46271   0.90094   0.01267  Uiso   1.00
O4895  O     0.95463   0.42292   0.74921   0.01267  Uiso   1.00
O4896  O     0.93527   0.42535   0.69173   0.01267  Uiso   1.00
O4897  O     0.90023   0.41942   0.98668   0.01267  Uiso   1.00
O4898  O     0.86581   0.42698   0.69291   0.01267  Uiso   1.00
O4899  O     0.87018   0.42098   0.75760   0.01267  Uiso   1.00
O4900  O     0.91191   0.41171   0.74481   0.01267  Uiso   1.00
O4901  O     0.95619   0.30971   0.74191   0.01267  Uiso   1.00
O4902  O     0.93486   0.31298   0.68645   0.01267  Uiso   1.00
O4903  O     0.89700   0.31815   0.98822   0.01267  Uiso   1.00
O4904  O     0.86215   0.30933   0.69280   0.01267  Uiso   1.00
O4905  O     0.87087   0.31556   0.75647   0.01267  Uiso   1.00
O4906  O     0.91293   0.31945   0.74215   0.01267  Uiso   1.00
O4907  O     0.93987   0.36725   0.72239   0.01267  Uiso   1.00
O4908  O     0.86003   0.36840   0.72072   0.01267  Uiso   1.00
O4909  O     0.97478   0.45664   0.79590   0.01267  Uiso   1.00
O4910  O     0.97013   0.39163   0.80253   0.01267  Uiso   1.00
O4911  O     0.96445   0.32611   0.80407   0.01267  Uiso   1.00
O4912  O     0.89926   0.45769   0.78820   0.01267  Uiso   1.00
O4913  O     0.89540   0.39368   0.80282   0.01267  Uiso   1.00
O4914  O     0.89954   0.32769   0.80407   0.01267  Uiso   1.00
O4915  O     0.83134   0.41712   0.73207   0.01267  Uiso   1.00
O4916  O     0.83048   0.32183   0.73557   0.01267  Uiso   1.00
O4917  O     0.78987   0.10780   0.74675   0.01267  Uiso   1.00
O4918  O     0.77144   0.11555   0.80478   0.01267  Uiso   1.00
O4919  O     0.73368   0.11618   0.83740   0.01267  Uiso   1.00
O4920  O     0.69804   0.10868   0.80096   0.01267  Uiso   1.00
O4921  O     0.70446   0.11619   0.73674   0.01267  Uiso   1.00
O4922  O     0.74644   0.11441   0.75230   0.01267  Uiso   1.00
O4923  O     0.78840   0.22612   0.75071   0.01267  Uiso   1.00
O4924  O     0.76792   0.21253   0.80605   0.01267  Uiso   1.00
O4925  O     0.73080   0.21837   0.83849   0.01267  Uiso   1.00
O4926  O     0.69597   0.22763   0.80054   0.01267  Uiso   1.00
O4927  O     0.70333   0.22007   0.73646   0.01267  Uiso   1.00
O4928  O     0.74536   0.21522   0.75039   0.01267  Uiso   1.00
O4929  O     0.77301   0.16584   0.76122   0.01267  Uiso   1.00
O4930  O     0.69360   0.16797   0.77401   0.01267  Uiso   1.00
O4931  O     0.80858   0.08009   0.69465   0.01267  Uiso   1.00
O4932  O     0.79984   0.14443   0.69429   0.01267  Uiso   1.00
O4933  O     0.79864   0.21005   0.68900   0.01267  Uiso   1.00
O4934  O     0.73098   0.07670   0.70407   0.01267  Uiso   1.00
O4935  O     0.73383   0.14181   0.69597   0.01267  Uiso   1.00
O4936  O     0.73161   0.20712   0.68837   0.01267  Uiso   1.00
O4937  O     0.99807   0.12014   0.76028   0.01267  Uiso   1.00
O4938  O     0.99672   0.21347   0.75963   0.01267  Uiso   1.00
O4939  O     0.70948   0.17260   0.91160   0.01267  Uiso   1.00
O4940  O     0.72733   0.16730   0.97032   0.01267  Uiso   1.00
O4941  O     0.76592   0.17347   0.99911   0.01267  Uiso   1.00
O4942  O     0.80449   0.17373   0.96985   0.01267  Uiso   1.00
O4943  O     0.79523   0.17276   0.90579   0.01267  Uiso   1.00
O4944  O     0.75286   0.16893   0.91816   0.01267  Uiso   1.00
O4945  O     0.70983   0.05773   0.91803   0.01267  Uiso   1.00
O4946  O     0.73083   0.06810   0.97310   0.01267  Uiso   1.00
O4947  O     0.76852   0.06948   0.67181   0.01267  Uiso   1.00
O4948  O     0.80304   0.05899   0.96669   0.01267  Uiso   1.00
O4949  O     0.79535   0.06309   0.90264   0.01267  Uiso   1.00
O4950  O     0.75331   0.06312   0.91785   0.01267  Uiso   1.00
O4951  O     0.72821   0.11605   0.92828   0.01267  Uiso   1.00
O4952  O     0.80559   0.11713   0.93699   0.01267  Uiso   1.00
O4953  O     0.69145   0.20637   0.86225   0.01267  Uiso   1.00
O4954  O     0.69600   0.14097   0.85743   0.01267  Uiso   1.00
O4955  O     0.70160   0.07547   0.85609   0.01267  Uiso   1.00
O4956  O     0.76788   0.20733   0.87024   0.01267  Uiso   1.00
O4957  O     0.76947   0.14119   0.86427   0.01267  Uiso   1.00
O4958  O     0.76595   0.07614   0.85602   0.01267  Uiso   1.00
O4959  O     0.83556   0.16442   0.92605   0.01267  Uiso   1.00
O4960  O     0.83545   0.07061   0.92456   0.01267  Uiso   1.00
O4961  O     0.81063   0.26772   0.71258   0.01267  Uiso   1.00
O4962  O     0.73102   0.26626   0.71464   0.01267  Uiso   1.00
O4963  O     0.76146   0.26600   0.84334   0.01267  Uiso   1.00
O4964  O     0.70262   0.26833   0.85006   0.01267  Uiso   1.00
O4965  O     0.68888   0.01707   0.87809   0.01267  Uiso   1.00
O4966  O     0.76946   0.01576   0.87912   0.01267  Uiso   1.00
O4967  O     0.74119   0.01841   0.68006   0.01267  Uiso   1.00
O4968  O     0.79556   0.01883   0.68348   0.01267  Uiso   1.00
O4969  O     0.85657   0.01826   0.94914   0.01267  Uiso   1.00
O4970  O     0.93355   0.01810   0.94316   0.01267  Uiso   1.00
O4971  O     0.90804   0.01753   0.80952   0.01267  Uiso   1.00
O4972  O     0.96289   0.01804   0.80939   0.01267  Uiso   1.00
O4973  O     0.97649   0.26781   0.78161   0.01267  Uiso   1.00
O4974  O     0.89793   0.26858   0.77768   0.01267  Uiso   1.00
O4975  O     0.92404   0.26754   0.97564   0.01267  Uiso   1.00
O4976  O     0.86948   0.26784   0.97720   0.01267  Uiso   1.00
Si4977 Si    0.80762   0.92298   0.71529   0.01267  Uiso   1.00
Si4978 Si    0.76949   0.90810   0.76362   0.01267  Uiso   1.00
Si4979 Si    0.75927   0.92159   0.83733   0.01267  Uiso   1.00
Si4980 Si    0.70690   0.92434   0.83709   0.01267  Uiso   1.00
Si4981 Si    0.68922   0.90720   0.76630   0.01267  Uiso   1.00
Si4982 Si    0.72825   0.92442   0.72162   0.01267  Uiso   1.00
Si4983 Si    0.80747   0.80650   0.72198   0.01267  Uiso   1.00
Si4984 Si    0.76888   0.82979   0.76726   0.01267  Uiso   1.00
Si4985 Si    0.70507   0.80747   0.84037   0.01267  Uiso   1.00
Si4986 Si    0.68923   0.82808   0.76805   0.01267  Uiso   1.00
Si4987 Si    0.72823   0.80484   0.72511   0.01267  Uiso   1.00
Si4988 Si    0.69169   0.86400   0.88456   0.01267  Uiso   1.00
Si4989 Si    0.72901   0.87694   0.93510   0.01267  Uiso   1.00
Si4990 Si    0.73934   0.86181   0.67537   0.01267  Uiso   1.00
Si4991 Si    0.79206   0.86046   0.67200   0.01267  Uiso   1.00
Si4992 Si    0.80959   0.88055   0.93622   0.01267  Uiso   1.00
Si4993 Si    0.77036   0.86499   0.89039   0.01267  Uiso   1.00
Si4994 Si    0.69182   0.97821   0.88750   0.01267  Uiso   1.00
Si4995 Si    0.73073   0.95703   0.93393   0.01267  Uiso   1.00
Si4996 Si    0.74315   0.97913   0.67256   0.01267  Uiso   1.00
Si4997 Si    0.79406   0.98090   0.67029   0.01267  Uiso   1.00
Si4998 Si    0.81062   0.95876   0.93437   0.01267  Uiso   1.00
Si4999 Si    0.77163   0.97672   0.88806   0.01267  Uiso   1.00
Si5000 Si    0.85878   0.67141   0.94405   0.01267  Uiso   1.00
Si5001 Si    0.89756   0.65709   0.89463   0.01267  Uiso   1.00
Si5002 Si    0.90590   0.67508   0.82175   0.01267  Uiso   1.00
Si5003 Si    0.95846   0.67518   0.82269   0.01267  Uiso   1.00
Si5004 Si    0.97520   0.65709   0.89336   0.01267  Uiso   1.00
Si5005 Si    0.93817   0.67015   0.94259   0.01267  Uiso   1.00
Si5006 Si    0.85847   0.55719   0.93957   0.01267  Uiso   1.00
Si5007 Si    0.89751   0.57839   0.89185   0.01267  Uiso   1.00
Si5008 Si    0.90972   0.55615   0.82034   0.01267  Uiso   1.00
Si5009 Si    0.96081   0.55614   0.82200   0.01267  Uiso   1.00
Si5010 Si    0.97700   0.57794   0.89263   0.01267  Uiso   1.00
Si5011 Si    0.93802   0.55734   0.93709   0.01267  Uiso   1.00
Si5012 Si    0.97448   0.61488   0.77782   0.01267  Uiso   1.00
Si5013 Si    0.93497   0.62873   0.72932   0.01267  Uiso   1.00
Si5014 Si    0.92656   0.61020   0.98939   0.01267  Uiso   1.00
Si5015 Si    0.87376   0.61072   0.98967   0.01267  Uiso   1.00
Si5016 Si    0.85701   0.62868   0.72717   0.01267  Uiso   1.00
Si5017 Si    0.89378   0.61468   0.77666   0.01267  Uiso   1.00
Si5018 Si    0.97375   0.72884   0.77292   0.01267  Uiso   1.00
Si5019 Si    0.93508   0.70814   0.72470   0.01267  Uiso   1.00
Si5020 Si    0.92248   0.72881   0.98635   0.01267  Uiso   1.00
Si5021 Si    0.87137   0.72946   0.98902   0.01267  Uiso   1.00
Si5022 Si    0.85521   0.70759   0.72657   0.01267  Uiso   1.00
Si5023 Si    0.89452   0.72952   0.76982   0.01267  Uiso   1.00
Si5024 Si    0.85806   0.86398   0.94442   0.01267  Uiso   1.00
Si5025 Si    0.89647   0.87890   0.89504   0.01267  Uiso   1.00
Si5026 Si    0.90612   0.86228   0.82192   0.01267  Uiso   1.00
Si5027 Si    0.95874   0.86100   0.82195   0.01267  Uiso   1.00
Si5028 Si    0.97555   0.87918   0.89221   0.01267  Uiso   1.00
Si5029 Si    0.93811   0.86436   0.94050   0.01267  Uiso   1.00
Si5030 Si    0.85934   0.97989   0.93821   0.01267  Uiso   1.00
Si5031 Si    0.89685   0.95812   0.89015   0.01267  Uiso   1.00
Si5032 Si    0.91006   0.97839   0.81822   0.01267  Uiso   1.00
Si5033 Si    0.96112   0.97968   0.82134   0.01267  Uiso   1.00
Si5034 Si    0.97649   0.95764   0.89211   0.01267  Uiso   1.00
Si5035 Si    0.93727   0.97903   0.93540   0.01267  Uiso   1.00
Si5036 Si    0.97400   0.92148   0.77633   0.01267  Uiso   1.00
Si5037 Si    0.93544   0.90665   0.72707   0.01267  Uiso   1.00
Si5038 Si    0.92662   0.92401   0.98742   0.01267  Uiso   1.00
Si5039 Si    0.87403   0.92485   0.98847   0.01267  Uiso   1.00
Si5040 Si    0.89449   0.92099   0.77350   0.01267  Uiso   1.00
Si5041 Si    0.97359   0.80653   0.77189   0.01267  Uiso   1.00
Si5042 Si    0.93587   0.82747   0.72348   0.01267  Uiso   1.00
Si5043 Si    0.92253   0.80655   0.98512   0.01267  Uiso   1.00
Si5044 Si    0.87154   0.80616   0.98902   0.01267  Uiso   1.00
Si5045 Si    0.89539   0.80786   0.76995   0.01267  Uiso   1.00
Si5046 Si    0.80727   0.61342   0.71703   0.01267  Uiso   1.00
Si5047 Si    0.77008   0.62614   0.76641   0.01267  Uiso   1.00
Si5048 Si    0.76001   0.61230   0.84062   0.01267  Uiso   1.00
Si5049 Si    0.70745   0.61041   0.83813   0.01267  Uiso   1.00
Si5050 Si    0.69023   0.62842   0.76815   0.01267  Uiso   1.00
Si5051 Si    0.72904   0.61249   0.72218   0.01267  Uiso   1.00
Si5052 Si    0.80673   0.72907   0.72205   0.01267  Uiso   1.00
Si5053 Si    0.76853   0.70511   0.76726   0.01267  Uiso   1.00
Si5054 Si    0.75695   0.72722   0.83953   0.01267  Uiso   1.00
Si5055 Si    0.70543   0.73032   0.83783   0.01267  Uiso   1.00
Si5056 Si    0.68913   0.70724   0.76782   0.01267  Uiso   1.00
Si5057 Si    0.72789   0.72713   0.72263   0.01267  Uiso   1.00
Si5058 Si    0.69139   0.67162   0.88239   0.01267  Uiso   1.00
Si5059 Si    0.72948   0.65617   0.93211   0.01267  Uiso   1.00
Si5060 Si    0.73970   0.67253   0.67191   0.01267  Uiso   1.00
Si5061 Si    0.79207   0.67523   0.67160   0.01267  Uiso   1.00
Si5062 Si    0.81005   0.65682   0.93468   0.01267  Uiso   1.00
Si5063 Si    0.77107   0.67253   0.88919   0.01267  Uiso   1.00
Si5064 Si    0.69236   0.55568   0.88807   0.01267  Uiso   1.00
Si5065 Si    0.73067   0.57646   0.93422   0.01267  Uiso   1.00
Si5066 Si    0.74294   0.55798   0.67376   0.01267  Uiso   1.00
Si5067 Si    0.79389   0.55698   0.67070   0.01267  Uiso   1.00
Si5068 Si    0.80983   0.57764   0.93282   0.01267  Uiso   1.00
Si5069 Si    0.77095   0.55476   0.88899   0.01267  Uiso   1.00
Si5070 Si    0.85683   0.90816   0.72564   0.01267  Uiso   1.00
Si5071 Si    0.85591   0.82902   0.72631   0.01267  Uiso   1.00
Al5072 Al    0.75667   0.80751   0.83856   0.01267  Uiso   1.00
O5073  O     0.78940   0.92634   0.74414   0.01267  Uiso   1.00
O5074  O     0.77179   0.91609   0.80265   0.01267  Uiso   1.00
O5075  O     0.73318   0.92387   0.83161   0.01267  Uiso   1.00
O5076  O     0.69481   0.92325   0.80185   0.01267  Uiso   1.00
O5077  O     0.70397   0.92396   0.73760   0.01267  Uiso   1.00
O5078  O     0.74621   0.92280   0.75103   0.01267  Uiso   1.00
O5079  O     0.78933   0.81005   0.75061   0.01267  Uiso   1.00
O5080  O     0.76993   0.82633   0.80624   0.01267  Uiso   1.00
O5081  O     0.72996   0.82007   0.84331   0.01267  Uiso   1.00
O5082  O     0.69539   0.81240   0.80335   0.01267  Uiso   1.00
O5083  O     0.70365   0.81059   0.73931   0.01267  Uiso   1.00
O5084  O     0.74593   0.81450   0.75329   0.01267  Uiso   1.00
O5085  O     0.77068   0.86866   0.75581   0.01267  Uiso   1.00
O5086  O     0.69409   0.86770   0.76773   0.01267  Uiso   1.00
O5087  O     0.80855   0.95711   0.69393   0.01267  Uiso   1.00
O5088  O     0.80233   0.89215   0.69092   0.01267  Uiso   1.00
O5089  O     0.79986   0.82606   0.68892   0.01267  Uiso   1.00
O5090  O     0.73094   0.95904   0.70169   0.01267  Uiso   1.00
O5091  O     0.73112   0.89316   0.69693   0.01267  Uiso   1.00
O5092  O     0.73202   0.82720   0.69232   0.01267  Uiso   1.00
O5093  O     0.99711   0.91518   0.75765   0.01267  Uiso   1.00
O5094  O     0.99681   0.82198   0.75999   0.01267  Uiso   1.00
O5095  O     0.70878   0.86110   0.91505   0.01267  Uiso   1.00
O5096  O     0.72814   0.86377   0.97257   0.01267  Uiso   1.00
O5097  O     0.76571   0.86327   0.67149   0.01267  Uiso   1.00
O5098  O     0.80104   0.85975   0.96773   0.01267  Uiso   1.00
O5099  O     0.79466   0.87139   0.90428   0.01267  Uiso   1.00
O5100  O     0.75216   0.86454   0.91886   0.01267  Uiso   1.00
O5101  O     0.71000   0.97433   0.91623   0.01267  Uiso   1.00
O5102  O     0.73146   0.97056   0.97122   0.01267  Uiso   1.00
O5103  O     0.76878   0.96790   0.67074   0.01267  Uiso   1.00
O5104  O     0.80342   0.98032   0.96622   0.01267  Uiso   1.00
O5105  O     0.79580   0.96877   0.90282   0.01267  Uiso   1.00
O5106  O     0.75343   0.96633   0.91532   0.01267  Uiso   1.00
O5107  O     0.72793   0.91705   0.93342   0.01267  Uiso   1.00
O5108  O     0.80726   0.91983   0.94366   0.01267  Uiso   1.00
O5109  O     0.68971   0.82877   0.86566   0.01267  Uiso   1.00
O5110  O     0.69981   0.89284   0.85937   0.01267  Uiso   1.00
O5111  O     0.69984   0.95881   0.85470   0.01267  Uiso   1.00
O5112  O     0.77202   0.82613   0.87438   0.01267  Uiso   1.00
O5113  O     0.76430   0.88971   0.86096   0.01267  Uiso   1.00
O5114  O     0.76828   0.95522   0.85463   0.01267  Uiso   1.00
O5115  O     0.83447   0.87018   0.92696   0.01267  Uiso   1.00
O5116  O     0.83605   0.96554   0.92503   0.01267  Uiso   1.00
O5117  O     0.87760   0.67230   0.91604   0.01267  Uiso   1.00
O5118  O     0.89870   0.67728   0.86009   0.01267  Uiso   1.00
O5119  O     0.93222   0.67091   0.81827   0.01267  Uiso   1.00
O5120  O     0.96503   0.67555   0.86122   0.01267  Uiso   1.00
O5121  O     0.96230   0.66945   0.92603   0.01267  Uiso   1.00
O5122  O     0.92035   0.66160   0.91432   0.01267  Uiso   1.00
O5123  O     0.87741   0.56225   0.91217   0.01267  Uiso   1.00
O5124  O     0.89829   0.56082   0.85608   0.01267  Uiso   1.00
O5125  O     0.93525   0.56783   0.82220   0.01267  Uiso   1.00
O5126  O     0.97052   0.55878   0.85893   0.01267  Uiso   1.00
O5127  O     0.96261   0.56297   0.92286   0.01267  Uiso   1.00
O5128  O     0.92056   0.57226   0.91077   0.01267  Uiso   1.00
O5129  O     0.89347   0.61794   0.88754   0.01267  Uiso   1.00
O5130  O     0.97221   0.61729   0.88846   0.01267  Uiso   1.00
O5131  O     0.85805   0.70719   0.96249   0.01267  Uiso   1.00
O5132  O     0.86338   0.64287   0.97139   0.01267  Uiso   1.00
O5133  O     0.86442   0.57699   0.97313   0.01267  Uiso   1.00
O5134  O     0.93385   0.70684   0.95770   0.01267  Uiso   1.00
O5135  O     0.93704   0.64279   0.97191   0.01267  Uiso   1.00
O5136  O     0.93541   0.57642   0.97207   0.01267  Uiso   1.00
O5137  O     0.66736   0.66662   0.89861   0.01267  Uiso   1.00
O5138  O     0.66938   0.57178   0.90052   0.01267  Uiso   1.00
O5139  O     0.95563   0.61452   0.74986   0.01267  Uiso   1.00
O5140  O     0.93380   0.60944   0.69437   0.01267  Uiso   1.00
O5141  O     0.90012   0.61205   0.98595   0.01267  Uiso   1.00
O5142  O     0.86667   0.61054   0.69462   0.01267  Uiso   1.00
O5143  O     0.86992   0.61510   0.75928   0.01267  Uiso   1.00
O5144  O     0.91244   0.62219   0.74928   0.01267  Uiso   1.00
O5145  O     0.95537   0.72435   0.74450   0.01267  Uiso   1.00
O5146  O     0.93503   0.72320   0.68774   0.01267  Uiso   1.00
O5147  O     0.89689   0.71773   0.99025   0.01267  Uiso   1.00
O5148  O     0.86075   0.72596   0.69203   0.01267  Uiso   1.00
O5149  O     0.86980   0.72364   0.75601   0.01267  Uiso   1.00
O5150  O     0.91192   0.71721   0.74223   0.01267  Uiso   1.00
O5151  O     0.93798   0.66822   0.72321   0.01267  Uiso   1.00
O5152  O     0.86073   0.66841   0.72318   0.01267  Uiso   1.00
O5153  O     0.97460   0.57955   0.79708   0.01267  Uiso   1.00
O5154  O     0.97054   0.64447   0.80434   0.01267  Uiso   1.00
O5155  O     0.96616   0.71009   0.80650   0.01267  Uiso   1.00
O5156  O     0.89723   0.57831   0.79294   0.01267  Uiso   1.00
O5157  O     0.89432   0.64295   0.80513   0.01267  Uiso   1.00
O5158  O     0.89792   0.70906   0.80387   0.01267  Uiso   1.00
O5159  O     0.83130   0.62040   0.73233   0.01267  Uiso   1.00
O5160  O     0.82955   0.71303   0.73551   0.01267  Uiso   1.00
O5161  O     0.87683   0.86250   0.91638   0.01267  Uiso   1.00
O5162  O     0.89664   0.86150   0.85915   0.01267  Uiso   1.00
O5163  O     0.93249   0.86684   0.82224   0.01267  Uiso   1.00
O5164  O     0.96814   0.85966   0.85911   0.01267  Uiso   1.00
O5165  O     0.96205   0.86465   0.92338   0.01267  Uiso   1.00
O5166  O     0.91978   0.87251   0.91282   0.01267  Uiso   1.00
O5167  O     0.87710   0.97738   0.90867   0.01267  Uiso   1.00
O5168  O     0.89724   0.97023   0.85223   0.01267  Uiso   1.00
O5169  O     0.93565   0.96765   0.82205   0.01267  Uiso   1.00
O5170  O     0.97117   0.97701   0.85808   0.01267  Uiso   1.00
O5171  O     0.96203   0.97304   0.92199   0.01267  Uiso   1.00
O5172  O     0.92019   0.96671   0.90726   0.01267  Uiso   1.00
O5173  O     0.89227   0.91853   0.89195   0.01267  Uiso   1.00
O5174  O     0.97058   0.91861   0.88759   0.01267  Uiso   1.00
O5175  O     0.85728   0.82874   0.96385   0.01267  Uiso   1.00
O5176  O     0.86221   0.89364   0.97062   0.01267  Uiso   1.00
O5177  O     0.86748   0.95919   0.97020   0.01267  Uiso   1.00
O5178  O     0.93413   0.82780   0.95613   0.01267  Uiso   1.00
O5179  O     0.93759   0.89228   0.96927   0.01267  Uiso   1.00
O5180  O     0.93342   0.95840   0.96924   0.01267  Uiso   1.00
O5181  O     0.66796   0.87364   0.89959   0.01267  Uiso   1.00
O5182  O     0.66887   0.96271   0.90094   0.01267  Uiso   1.00
O5183  O     0.95463   0.92292   0.74921   0.01267  Uiso   1.00
O5184  O     0.93527   0.92535   0.69173   0.01267  Uiso   1.00
O5185  O     0.90023   0.91942   0.98668   0.01267  Uiso   1.00
O5186  O     0.86581   0.92698   0.69291   0.01267  Uiso   1.00
O5187  O     0.87018   0.92098   0.75760   0.01267  Uiso   1.00
O5188  O     0.91191   0.91171   0.74481   0.01267  Uiso   1.00
O5189  O     0.95619   0.80971   0.74191   0.01267  Uiso   1.00
O5190  O     0.93486   0.81298   0.68645   0.01267  Uiso   1.00
O5191  O     0.89700   0.81815   0.98822   0.01267  Uiso   1.00
O5192  O     0.86215   0.80933   0.69280   0.01267  Uiso   1.00
O5193  O     0.87087   0.81556   0.75647   0.01267  Uiso   1.00
O5194  O     0.91293   0.81945   0.74215   0.01267  Uiso   1.00
O5195  O     0.93987   0.86725   0.72239   0.01267  Uiso   1.00
O5196  O     0.86003   0.86840   0.72072   0.01267  Uiso   1.00
O5197  O     0.97478   0.95664   0.79590   0.01267  Uiso   1.00
O5198  O     0.97013   0.89163   0.80253   0.01267  Uiso   1.00
O5199  O     0.96445   0.82611   0.80407   0.01267  Uiso   1.00
O5200  O     0.89926   0.95769   0.78820   0.01267  Uiso   1.00
O5201  O     0.89540   0.89368   0.80282   0.01267  Uiso   1.00
O5202  O     0.89954   0.82769   0.80407   0.01267  Uiso   1.00
O5203  O     0.83134   0.91712   0.73207   0.01267  Uiso   1.00
O5204  O     0.83048   0.82183   0.73557   0.01267  Uiso   1.00
O5205  O     0.78987   0.60780   0.74675   0.01267  Uiso   1.00
O5206  O     0.77144   0.61555   0.80478   0.01267  Uiso   1.00
O5207  O     0.73368   0.61618   0.83740   0.01267  Uiso   1.00
O5208  O     0.69804   0.60868   0.80096   0.01267  Uiso   1.00
O5209  O     0.70446   0.61619   0.73674   0.01267  Uiso   1.00
O5210  O     0.74644   0.61441   0.75230   0.01267  Uiso   1.00
O5211  O     0.78840   0.72612   0.75071   0.01267  Uiso   1.00
O5212  O     0.76792   0.71253   0.80605   0.01267  Uiso   1.00
O5213  O     0.73080   0.71837   0.83849   0.01267  Uiso   1.00
O5214  O     0.69597   0.72763   0.80054   0.01267  Uiso   1.00
O5215  O     0.70333   0.72007   0.73646   0.01267  Uiso   1.00
O5216  O     0.74536   0.71522   0.75039   0.01267  Uiso   1.00
O5217  O     0.77301   0.66584   0.76122   0.01267  Uiso   1.00
O5218  O     0.69360   0.66797   0.77401   0.01267  Uiso   1.00
O5219  O     0.80858   0.58009   0.69465   0.01267  Uiso   1.00
O5220  O     0.79984   0.64443   0.69429   0.01267  Uiso   1.00
O5221  O     0.79864   0.71005   0.68900   0.01267  Uiso   1.00
O5222  O     0.73098   0.57670   0.70407   0.01267  Uiso   1.00
O5223  O     0.73383   0.64181   0.69597   0.01267  Uiso   1.00
O5224  O     0.73161   0.70712   0.68837   0.01267  Uiso   1.00
O5225  O     0.99807   0.62014   0.76028   0.01267  Uiso   1.00
O5226  O     0.99672   0.71347   0.75963   0.01267  Uiso   1.00
O5227  O     0.70948   0.67260   0.91160   0.01267  Uiso   1.00
O5228  O     0.72733   0.66730   0.97032   0.01267  Uiso   1.00
O5229  O     0.76592   0.67347   0.99911   0.01267  Uiso   1.00
O5230  O     0.80449   0.67373   0.96985   0.01267  Uiso   1.00
O5231  O     0.79523   0.67276   0.90579   0.01267  Uiso   1.00
O5232  O     0.75286   0.66893   0.91816   0.01267  Uiso   1.00
O5233  O     0.70983   0.55773   0.91803   0.01267  Uiso   1.00
O5234  O     0.73083   0.56810   0.97310   0.01267  Uiso   1.00
O5235  O     0.76852   0.56948   0.67181   0.01267  Uiso   1.00
O5236  O     0.80304   0.55899   0.96669   0.01267  Uiso   1.00
O5237  O     0.79535   0.56309   0.90264   0.01267  Uiso   1.00
O5238  O     0.75331   0.56312   0.91785   0.01267  Uiso   1.00
O5239  O     0.72821   0.61605   0.92828   0.01267  Uiso   1.00
O5240  O     0.80559   0.61713   0.93699   0.01267  Uiso   1.00
O5241  O     0.69145   0.70637   0.86225   0.01267  Uiso   1.00
O5242  O     0.69600   0.64097   0.85743   0.01267  Uiso   1.00
O5243  O     0.70160   0.57547   0.85609   0.01267  Uiso   1.00
O5244  O     0.76788   0.70733   0.87024   0.01267  Uiso   1.00
O5245  O     0.76947   0.64119   0.86427   0.01267  Uiso   1.00
O5246  O     0.76595   0.57614   0.85602   0.01267  Uiso   1.00
O5247  O     0.83556   0.66442   0.92605   0.01267  Uiso   1.00
O5248  O     0.83545   0.57061   0.92456   0.01267  Uiso   1.00
O5249  O     0.81063   0.76772   0.71258   0.01267  Uiso   1.00
O5250  O     0.73102   0.76626   0.71464   0.01267  Uiso   1.00
O5251  O     0.76146   0.76600   0.84334   0.01267  Uiso   1.00
O5252  O     0.70262   0.76833   0.85006   0.01267  Uiso   1.00
O5253  O     0.68888   0.51707   0.87809   0.01267  Uiso   1.00
O5254  O     0.76946   0.51576   0.87912   0.01267  Uiso   1.00
O5255  O     0.74119   0.51841   0.68006   0.01267  Uiso   1.00
O5256  O     0.79556   0.51882   0.68348   0.01267  Uiso   1.00
O5257  O     0.85657   0.51826   0.94914   0.01267  Uiso   1.00
O5258  O     0.93355   0.51810   0.94316   0.01267  Uiso   1.00
O5259  O     0.90804   0.51753   0.80952   0.01267  Uiso   1.00
O5260  O     0.96289   0.51804   0.80939   0.01267  Uiso   1.00
O5261  O     0.97649   0.76781   0.78161   0.01267  Uiso   1.00
O5262  O     0.89793   0.76858   0.77768   0.01267  Uiso   1.00
O5263  O     0.92404   0.76754   0.97564   0.01267  Uiso   1.00
O5264  O     0.86948   0.76784   0.97720   0.01267  Uiso   1.00
H5265  H     0.78689   0.81610   0.87642   0.01267  Uiso   1.00
H5266  H     0.84410   0.76431   0.79676   0.01267  Uiso   1.00
H5267  H     0.82011   0.81753   0.80946   0.01267  Uiso   1.00
H5268  H     0.85567   0.73341   0.85143   0.01267  Uiso   1.00
H5269  H     0.84010   0.76396   0.90414   0.01267  Uiso   1.00
C5270  C     0.84557   0.75567   0.85078   0.01267  Uiso   1.00
C5271  C     0.83773   0.77085   0.87856   0.01267  Uiso   1.00
C5272  C     0.83944   0.77245   0.82129   0.01267  Uiso   1.00
C5273  C     0.82712   0.80027   0.82704   0.01267  Uiso   1.00
S5274  S     0.82348   0.80629   0.86853   0.01267  Uiso   1.00
loop_
_geom_bond_atom_site_label_1
_geom_bond_atom_site_label_2
_geom_bond_distance
_geom_bond_site_symmetry_2
_ccdc_geom_bond_type
Si1    O97     1.625   .     S
Si1    O111    1.629   .     S
Si1    O112    1.623   .     S
Si1    O227    1.620   .     S
Si2    O97     1.629   .     S
Si2    O98     1.628   .     S
Si2    O102    1.625   .     S
Si2    O109    1.624   .     S
Si3    O98     1.622   .     S
Si3    O99     1.615   .     S
Si3    O137    1.635   .     S
Si3    O138    1.625   .     S
Si4    O99     1.622   .     S
Si4    O100    1.615   .     S
Si4    O134    1.620   .     S
Si4    O135    1.623   .     S
Si5    O100    1.622   .     S
Si5    O101    1.624   .     S
Si5    O110    1.622   .     S
Si5    O1289   1.627   1_455 S
Si6    O101    1.621   .     S
Si6    O102    1.626   .     S
Si6    O114    1.623   .     S
Si6    O115    1.622   .     S
Si7    O103    1.615   .     S
Si7    O113    1.628   .     S
Si7    O228    1.633   .     S
Si7    O273    1.622   .     S
Si8    O103    1.630   .     S
Si8    O104    1.595   .     S
Si8    O108    1.635   .     S
Si8    O109    1.639   .     S
Si9    O105    1.609   .     S
Si9    O106    1.631   .     S
Si9    O133    1.637   .     S
Si9    O276    1.634   .     S
Si10   O106    1.615   .     S
Si10   O107    1.626   .     S
Si10   O110    1.625   .     S
Si10   O1290   1.627   1_455 S
Si11   O107    1.627   .     S
Si11   O108    1.624   .     S
Si11   O116    1.628   .     S
Si11   O274    1.622   .     S
Si12   O119    1.627   .     S
Si12   O133    1.620   .     S
Si12   O134    1.628   .     S
Si12   O205    1.622   .     S
Si13   O119    1.614   .     S
Si13   O120    1.617   .     S
Si13   O124    1.640   .     S
Si13   O131    1.620   .     S
Si14   O115    1.619   .     S
Si14   O116    1.620   .     S
Si14   O121    1.621   .     S
Si14   O3636   1.625   1_554 S
Si15   O112    1.619   .     S
Si15   O113    1.621   .     S
Si15   O121    1.616   .     S
Si15   O3638   1.627   1_554 S
Si16   O122    1.619   .     S
Si16   O123    1.631   .     S
Si16   O132    1.619   .     S
Si16   O139    1.622   .     S
Si17   O123    1.611   .     S
Si17   O124    1.607   .     S
Si17   O136    1.700   .     S
Si17   O137    1.602   .     S
Si18   O125    1.622   .     S
Si18   O135    1.624   .     S
Si18   O206    1.631   .     S
Si18   O565    1.623   .     S
Si19   O125    1.616   .     S
Si19   O126    1.614   .     S
Si19   O130    1.625   .     S
Si19   O131    1.622   .     S
Si20   O114    1.619   .     S
Si20   O127    1.633   .     S
Si20   O567    1.618   .     S
Si20   O3642   1.620   1_554 S
Si21   O111    1.622   .     S
Si21   O127    1.632   .     S
Si21   O568    1.623   .     S
Si21   O3644   1.627   1_554 S
Si22   O128    1.622   .     S
Si22   O129    1.623   .     S
Si22   O132    1.628   .     S
Si22   O140    1.624   .     S
Si23   O129    1.628   .     S
Si23   O130    1.627   .     S
Si23   O138    1.627   .     S
Si23   O566    1.621   .     S
Si24   O141    1.621   .     S
Si24   O155    1.627   .     S
Si24   O156    1.626   .     S
Si24   O271    1.623   .     S
Si25   O141    1.620   .     S
Si25   O142    1.627   .     S
Si25   O146    1.618   .     S
Si25   O153    1.625   .     S
Si26   O142    1.625   .     S
Si26   O143    1.624   .     S
Si26   O181    1.624   .     S
Si26   O182    1.627   .     S
Si27   O143    1.624   .     S
Si27   O144    1.620   .     S
Si27   O178    1.624   .     S
Si27   O179    1.624   .     S
Si28   O144    1.629   .     S
Si28   O145    1.625   .     S
Si28   O154    1.628   .     S
Si28   O747    1.619   .     S
Si29   O145    1.623   .     S
Si29   O146    1.622   .     S
Si29   O158    1.624   .     S
Si29   O159    1.627   .     S
Si30   O147    1.621   .     S
Si30   O157    1.624   .     S
Si30   O272    1.628   .     S
Si30   O281    1.622   .     S
Si31   O147    1.618   .     S
Si31   O148    1.620   .     S
Si31   O152    1.625   .     S
Si31   O153    1.624   .     S
Si32   O148    1.625   .     S
Si32   O149    1.632   .     S
Si32   O180    1.621   .     S
Si32   O283    1.622   .     S
Si33   O149    1.633   .     S
Si33   O150    1.621   .     S
Si33   O177    1.622   .     S
Si33   O284    1.625   .     S
Si34   O150    1.624   .     S
Si34   O151    1.629   .     S
Si34   O154    1.623   .     S
Si34   O748    1.624   .     S
Si35   O151    1.628   .     S
Si35   O152    1.628   .     S
Si35   O160    1.627   .     S
Si35   O282    1.625   .     S
Si36   O163    1.621   .     S
Si36   O177    1.626   .     S
Si36   O178    1.627   .     S
Si36   O249    1.624   .     S
Si37   O163    1.620   .     S
Si37   O164    1.624   .     S
Si37   O168    1.622   .     S
Si37   O175    1.622   .     S
Si38   O159    1.626   .     S
Si38   O160    1.627   .     S
Si38   O165    1.625   .     S
Si38   O1922   1.622   .     S
Si39   O156    1.624   .     S
Si39   O157    1.622   .     S
Si39   O165    1.620   .     S
Si39   O1924   1.618   .     S
Si40   O166    1.625   .     S
Si40   O167    1.622   .     S
Si40   O176    1.627   .     S
Si40   O183    1.621   .     S
Si41   O167    1.622   .     S
Si41   O168    1.623   .     S
Si41   O180    1.624   .     S
Si41   O181    1.626   .     S
Si42   O169    1.623   .     S
Si42   O179    1.630   .     S
Si42   O250    1.628   .     S
Si42   O285    1.620   .     S
Si43   O169    1.617   .     S
Si43   O170    1.623   .     S
Si43   O174    1.628   .     S
Si43   O175    1.621   .     S
Si44   O158    1.622   .     S
Si44   O171    1.635   .     S
Si44   O287    1.625   .     S
Si44   O1928   1.624   .     S
Si45   O155    1.624   .     S
Si45   O171    1.632   .     S
Si45   O288    1.625   .     S
Si45   O1930   1.622   .     S
Si46   O172    1.626   .     S
Si46   O173    1.629   .     S
Si46   O176    1.622   .     S
Si46   O184    1.625   .     S
Si47   O173    1.630   .     S
Si47   O174    1.625   .     S
Si47   O182    1.627   .     S
Si47   O286    1.621   .     S
Si48   O139    1.627   .     S
Si48   O185    1.620   .     S
Si48   O199    1.627   .     S
Si48   O200    1.623   .     S
Si49   O185    1.624   .     S
Si49   O186    1.621   .     S
Si49   O190    1.619   .     S
Si49   O197    1.624   .     S
Si50   O186    1.623   .     S
Si50   O187    1.623   .     S
Si50   O225    1.624   .     S
Si50   O226    1.624   .     S
Si51   O187    1.622   .     S
Si51   O188    1.620   .     S
Si51   O222    1.624   .     S
Si51   O223    1.622   .     S
Si52   O188    1.625   .     S
Si52   O189    1.624   .     S
Si52   O198    1.630   .     S
Si52   O791    1.618   .     S
Si53   O189    1.621   .     S
Si53   O190    1.623   .     S
Si53   O202    1.624   .     S
Si53   O203    1.625   .     S
Si54   O140    1.628   .     S
Si54   O191    1.624   .     S
Si54   O201    1.625   .     S
Si54   O569    1.619   .     S
Si55   O191    1.622   .     S
Si55   O192    1.620   .     S
Si55   O196    1.625   .     S
Si55   O197    1.623   .     S
Si56   O192    1.625   .     S
Si56   O193    1.631   .     S
Si56   O224    1.621   .     S
Si56   O571    1.623   .     S
Si57   O193    1.632   .     S
Si57   O194    1.621   .     S
Si57   O221    1.623   .     S
Si57   O572    1.625   .     S
Si58   O194    1.624   .     S
Si58   O195    1.627   .     S
Si58   O198    1.625   .     S
Si58   O792    1.626   .     S
Si59   O195    1.627   .     S
Si59   O196    1.628   .     S
Si59   O204    1.627   .     S
Si59   O570    1.623   .     S
Si60   O117    1.625   .     S
Si60   O207    1.620   .     S
Si60   O221    1.627   .     S
Si60   O222    1.626   .     S
Si61   O207    1.619   .     S
Si61   O208    1.625   .     S
Si61   O212    1.623   .     S
Si61   O219    1.623   .     S
Si62   O203    1.623   .     S
Si62   O204    1.626   .     S
Si62   O209    1.624   .     S
Si62   O1966   1.623   .     S
Si63   O200    1.623   .     S
Si63   O201    1.622   .     S
Si63   O209    1.619   .     S
Si63   O1968   1.621   .     S
Si64   O211    1.621   .     S
Si64   O212    1.624   .     S
Si64   O224    1.623   .     S
Si64   O225    1.625   .     S
Si65   O118    1.625   .     S
Si65   O213    1.624   .     S
Si65   O223    1.629   .     S
Si65   O285    1.621   .     S
Si66   O213    1.618   .     S
Si66   O214    1.619   .     S
Si66   O218    1.628   .     S
Si66   O219    1.623   .     S
Si67   O202    1.622   .     S
Si67   O215    1.635   .     S
Si67   O287    1.623   .     S
Si67   O1972   1.621   .     S
Si68   O199    1.625   .     S
Si68   O215    1.630   .     S
Si68   O288    1.624   .     S
Si68   O1974   1.622   .     S
Si69   O217    1.626   .     S
Si69   O218    1.628   .     S
Si69   O226    1.623   .     S
Si69   O286    1.623   .     S
Si70   O183    1.621   .     S
Si70   O229    1.627   .     S
Si70   O243    1.626   .     S
Si70   O244    1.621   .     S
Si71   O229    1.629   .     S
Si71   O230    1.622   .     S
Si71   O234    1.626   .     S
Si71   O241    1.625   .     S
Si72   O230    1.624   .     S
Si72   O231    1.623   .     S
Si72   O269    1.618   .     S
Si72   O270    1.628   .     S
Si73   O231    1.621   .     S
Si73   O232    1.621   .     S
Si73   O266    1.621   .     S
Si73   O267    1.627   .     S
Si74   O232    1.627   .     S
Si74   O233    1.624   .     S
Si74   O242    1.626   .     S
Si74   O1421   1.626   1_455 S
Si75   O233    1.623   .     S
Si75   O234    1.626   .     S
Si75   O246    1.625   .     S
Si75   O247    1.620   .     S
Si76   O184    1.633   .     S
Si76   O235    1.623   .     S
Si76   O245    1.626   .     S
Si76   O273    1.623   .     S
Si77   O235    1.627   .     S
Si77   O236    1.608   .     S
Si77   O240    1.627   .     S
Si77   O241    1.626   .     S
Si78   O236    1.631   .     S
Si78   O237    1.639   .     S
Si78   O268    1.629   .     S
Si78   O275    1.596   .     S
Si79   O237    1.625   .     S
Si79   O238    1.629   .     S
Si79   O265    1.629   .     S
Si79   O276    1.621   .     S
Si80   O238    1.621   .     S
Si80   O239    1.628   .     S
Si80   O242    1.627   .     S
Si80   O1422   1.629   1_455 S
Si81   O239    1.629   .     S
Si81   O240    1.628   .     S
Si81   O248    1.628   .     S
Si81   O274    1.623   .     S
Si82   O161    1.624   .     S
Si82   O251    1.625   .     S
Si82   O265    1.624   .     S
Si82   O266    1.625   .     S
Si83   O251    1.622   .     S
Si83   O252    1.625   .     S
Si83   O256    1.623   .     S
Si83   O263    1.627   .     S
Si84   O247    1.620   .     S
Si84   O248    1.625   .     S
Si84   O3768   1.624   1_554 S
Si84   O3769   1.623   1_554 S
Si85   O244    1.619   .     S
Si85   O245    1.623   .     S
Si85   O3769   1.618   1_554 S
Si85   O3770   1.619   1_554 S
Si86   O254    1.622   .     S
Si86   O255    1.618   .     S
Si86   O264    1.627   .     S
Si86   O271    1.628   .     S
Si87   O255    1.625   .     S
Si87   O256    1.628   .     S
Si87   O268    1.614   .     S
Si87   O269    1.624   .     S
Si88   O162    1.629   .     S
Si88   O257    1.624   .     S
Si88   O267    1.629   .     S
Si88   O277    1.623   .     S
Si89   O257    1.621   .     S
Si89   O258    1.619   .     S
Si89   O262    1.628   .     S
Si89   O263    1.622   .     S
Si90   O246    1.621   .     S
Si90   O259    1.634   .     S
Si90   O279    1.620   .     S
Si90   O3774   1.622   1_554 S
Si91   O243    1.621   .     S
Si91   O259    1.631   .     S
Si91   O280    1.627   .     S
Si91   O3776   1.622   1_554 S
Si92   O260    1.625   .     S
Si92   O261    1.624   .     S
Si92   O264    1.623   .     S
Si92   O272    1.627   .     S
Si93   O261    1.627   .     S
Si93   O262    1.630   .     S
Si93   O270    1.624   .     S
Si93   O278    1.626   .     S
Si94   O210    1.629   .     S
Si94   O211    1.621   .     S
Si94   O220    1.628   .     S
Si94   O227    1.621   .     S
Si95   O216    1.624   .     S
Si95   O217    1.625   .     S
Si95   O220    1.624   .     S
Si95   O228    1.626   .     S
Al96   O104    1.722   .     S
Al96   O105    1.721   .     S
Al96   O136    1.890   .     S
Al96   O275    1.711   .     S
O117   Si591   1.627   .     S
O118   Si596   1.627   .     S
O120   Si1772  1.625   .     S
O122   Si1773  1.627   .     S
O126   Si1778  1.620   .     S
O128   Si1779  1.627   .     S
O161   Si1200  1.619   1_455 S
O162   Si1206  1.624   1_455 S
O164   Si3554  1.622   1_554 S
O166   Si3555  1.618   1_554 S
O170   Si3560  1.624   1_554 S
O172   Si3561  1.622   1_554 S
O205   Si1224  1.618   1_455 S
O206   Si1230  1.626   1_455 S
O208   Si3578  1.623   1_554 S
O210   Si3579  1.621   1_554 S
O214   Si3583  1.621   1_554 S
O216   Si3584  1.622   1_554 S
O249   Si660   1.626   .     S
O250   Si666   1.629   .     S
O252   Si1842  1.624   .     S
O253   Si1842  1.623   .     S
O253   Si1843  1.618   .     S
O254   Si1843  1.619   .     S
O258   Si1848  1.622   .     S
O260   Si1849  1.622   .     S
O277   Si306   1.623   1_545 S
O278   Si311   1.621   1_545 S
O279   Si308   1.618   1_545 S
O280   Si309   1.624   1_545 S
O281   Si342   1.619   1_545 S
O282   Si347   1.623   1_545 S
O283   Si344   1.623   1_545 S
O284   Si345   1.625   1_545 S
Si289  O385    1.625   .     S
Si289  O399    1.629   .     S
Si289  O400    1.623   .     S
Si289  O515    1.620   .     S
Si290  O385    1.629   .     S
Si290  O386    1.628   .     S
Si290  O390    1.625   .     S
Si290  O397    1.624   .     S
Si291  O386    1.622   .     S
Si291  O387    1.615   .     S
Si291  O425    1.635   .     S
Si291  O426    1.625   .     S
Si292  O387    1.622   .     S
Si292  O388    1.615   .     S
Si292  O422    1.620   .     S
Si292  O423    1.623   .     S
Si293  O388    1.622   .     S
Si293  O389    1.624   .     S
Si293  O398    1.622   .     S
Si293  O1577   1.627   1_455 S
Si294  O389    1.621   .     S
Si294  O390    1.626   .     S
Si294  O402    1.623   .     S
Si294  O403    1.622   .     S
Si295  O391    1.615   .     S
Si295  O401    1.628   .     S
Si295  O516    1.633   .     S
Si295  O561    1.622   .     S
Si296  O391    1.630   .     S
Si296  O392    1.595   .     S
Si296  O396    1.635   .     S
Si296  O397    1.639   .     S
Si297  O393    1.609   .     S
Si297  O394    1.631   .     S
Si297  O421    1.637   .     S
Si297  O564    1.634   .     S
Si298  O394    1.615   .     S
Si298  O395    1.626   .     S
Si298  O398    1.625   .     S
Si298  O1578   1.627   1_455 S
Si299  O395    1.627   .     S
Si299  O396    1.624   .     S
Si299  O404    1.628   .     S
Si299  O562    1.622   .     S
Si300  O407    1.627   .     S
Si300  O421    1.620   .     S
Si300  O422    1.628   .     S
Si300  O493    1.622   .     S
Si301  O407    1.614   .     S
Si301  O408    1.617   .     S
Si301  O412    1.640   .     S
Si301  O419    1.620   .     S
Si302  O403    1.619   .     S
Si302  O404    1.620   .     S
Si302  O409    1.621   .     S
Si302  O3924   1.625   1_554 S
Si303  O400    1.619   .     S
Si303  O401    1.621   .     S
Si303  O409    1.616   .     S
Si303  O3926   1.627   1_554 S
Si304  O410    1.619   .     S
Si304  O411    1.631   .     S
Si304  O420    1.619   .     S
Si304  O427    1.622   .     S
Si305  O411    1.611   .     S
Si305  O412    1.607   .     S
Si305  O424    1.700   .     S
Si305  O425    1.602   .     S
Si306  O413    1.622   .     S
Si306  O423    1.624   .     S
Si306  O494    1.631   .     S
Si306  O277    1.623   1_565 S
Si307  O413    1.616   .     S
Si307  O414    1.614   .     S
Si307  O418    1.625   .     S
Si307  O419    1.622   .     S
Si308  O402    1.619   .     S
Si308  O415    1.633   .     S
Si308  O279    1.618   1_565 S
Si308  O3930   1.620   1_554 S
Si309  O399    1.622   .     S
Si309  O415    1.632   .     S
Si309  O280    1.624   1_565 S
Si309  O3932   1.627   1_554 S
Si310  O416    1.622   .     S
Si310  O417    1.623   .     S
Si310  O420    1.628   .     S
Si310  O428    1.624   .     S
Si311  O417    1.628   .     S
Si311  O418    1.627   .     S
Si311  O426    1.627   .     S
Si311  O278    1.621   1_565 S
Si312  O429    1.621   .     S
Si312  O443    1.627   .     S
Si312  O444    1.626   .     S
Si312  O559    1.623   .     S
Si313  O429    1.620   .     S
Si313  O430    1.627   .     S
Si313  O434    1.618   .     S
Si313  O441    1.625   .     S
Si314  O430    1.625   .     S
Si314  O431    1.624   .     S
Si314  O469    1.624   .     S
Si314  O470    1.627   .     S
Si315  O431    1.624   .     S
Si315  O432    1.620   .     S
Si315  O466    1.624   .     S
Si315  O467    1.624   .     S
Si316  O432    1.629   .     S
Si316  O433    1.625   .     S
Si316  O442    1.628   .     S
Si316  O1035   1.619   .     S
Si317  O433    1.623   .     S
Si317  O434    1.622   .     S
Si317  O446    1.624   .     S
Si317  O447    1.627   .     S
Si318  O435    1.621   .     S
Si318  O445    1.624   .     S
Si318  O560    1.628   .     S
Si318  O569    1.622   .     S
Si319  O435    1.618   .     S
Si319  O436    1.620   .     S
Si319  O440    1.625   .     S
Si319  O441    1.624   .     S
Si320  O436    1.625   .     S
Si320  O437    1.632   .     S
Si320  O468    1.621   .     S
Si320  O571    1.622   .     S
Si321  O437    1.633   .     S
Si321  O438    1.621   .     S
Si321  O465    1.622   .     S
Si321  O572    1.625   .     S
Si322  O438    1.624   .     S
Si322  O439    1.629   .     S
Si322  O442    1.623   .     S
Si322  O1036   1.624   .     S
Si323  O439    1.628   .     S
Si323  O440    1.628   .     S
Si323  O448    1.627   .     S
Si323  O570    1.625   .     S
Si324  O451    1.621   .     S
Si324  O465    1.626   .     S
Si324  O466    1.627   .     S
Si324  O537    1.624   .     S
Si325  O451    1.620   .     S
Si325  O452    1.624   .     S
Si325  O456    1.622   .     S
Si325  O463    1.622   .     S
Si326  O447    1.626   .     S
Si326  O448    1.627   .     S
Si326  O453    1.625   .     S
Si326  O2210   1.622   .     S
Si327  O444    1.624   .     S
Si327  O445    1.622   .     S
Si327  O453    1.620   .     S
Si327  O2212   1.618   .     S
Si328  O454    1.625   .     S
Si328  O455    1.622   .     S
Si328  O464    1.627   .     S
Si328  O471    1.621   .     S
Si329  O455    1.622   .     S
Si329  O456    1.623   .     S
Si329  O468    1.624   .     S
Si329  O469    1.626   .     S
Si330  O457    1.623   .     S
Si330  O467    1.630   .     S
Si330  O538    1.628   .     S
Si330  O573    1.620   .     S
Si331  O457    1.617   .     S
Si331  O458    1.623   .     S
Si331  O462    1.628   .     S
Si331  O463    1.621   .     S
Si332  O446    1.622   .     S
Si332  O459    1.635   .     S
Si332  O575    1.625   .     S
Si332  O2216   1.624   .     S
Si333  O443    1.624   .     S
Si333  O459    1.632   .     S
Si333  O576    1.625   .     S
Si333  O2218   1.622   .     S
Si334  O460    1.626   .     S
Si334  O461    1.629   .     S
Si334  O464    1.622   .     S
Si334  O472    1.625   .     S
Si335  O461    1.630   .     S
Si335  O462    1.625   .     S
Si335  O470    1.627   .     S
Si335  O574    1.621   .     S
Si336  O427    1.627   .     S
Si336  O473    1.620   .     S
Si336  O487    1.627   .     S
Si336  O488    1.623   .     S
Si337  O473    1.624   .     S
Si337  O474    1.621   .     S
Si337  O478    1.619   .     S
Si337  O485    1.624   .     S
Si338  O474    1.623   .     S
Si338  O475    1.623   .     S
Si338  O513    1.624   .     S
Si338  O514    1.624   .     S
Si339  O475    1.622   .     S
Si339  O476    1.620   .     S
Si339  O510    1.624   .     S
Si339  O511    1.622   .     S
Si340  O476    1.625   .     S
Si340  O477    1.624   .     S
Si340  O486    1.630   .     S
Si340  O1079   1.618   .     S
Si341  O477    1.621   .     S
Si341  O478    1.623   .     S
Si341  O490    1.624   .     S
Si341  O491    1.625   .     S
Si342  O428    1.628   .     S
Si342  O479    1.624   .     S
Si342  O489    1.625   .     S
Si342  O281    1.619   1_565 S
Si343  O479    1.622   .     S
Si343  O480    1.620   .     S
Si343  O484    1.625   .     S
Si343  O485    1.623   .     S
Si344  O480    1.625   .     S
Si344  O481    1.631   .     S
Si344  O512    1.621   .     S
Si344  O283    1.623   1_565 S
Si345  O481    1.632   .     S
Si345  O482    1.621   .     S
Si345  O509    1.623   .     S
Si345  O284    1.625   1_565 S
Si346  O482    1.624   .     S
Si346  O483    1.627   .     S
Si346  O486    1.625   .     S
Si346  O1080   1.626   .     S
Si347  O483    1.627   .     S
Si347  O484    1.628   .     S
Si347  O492    1.627   .     S
Si347  O282    1.623   1_565 S
Si348  O405    1.625   .     S
Si348  O495    1.620   .     S
Si348  O509    1.627   .     S
Si348  O510    1.626   .     S
Si349  O495    1.619   .     S
Si349  O496    1.625   .     S
Si349  O500    1.623   .     S
Si349  O507    1.623   .     S
Si350  O491    1.623   .     S
Si350  O492    1.626   .     S
Si350  O497    1.624   .     S
Si350  O2254   1.623   .     S
Si351  O488    1.623   .     S
Si351  O489    1.622   .     S
Si351  O497    1.619   .     S
Si351  O2256   1.621   .     S
Si352  O499    1.621   .     S
Si352  O500    1.624   .     S
Si352  O512    1.623   .     S
Si352  O513    1.625   .     S
Si353  O406    1.625   .     S
Si353  O501    1.624   .     S
Si353  O511    1.629   .     S
Si353  O573    1.621   .     S
Si354  O501    1.618   .     S
Si354  O502    1.619   .     S
Si354  O506    1.628   .     S
Si354  O507    1.623   .     S
Si355  O490    1.622   .     S
Si355  O503    1.635   .     S
Si355  O575    1.623   .     S
Si355  O2260   1.621   .     S
Si356  O487    1.625   .     S
Si356  O503    1.630   .     S
Si356  O576    1.624   .     S
Si356  O2262   1.622   .     S
Si357  O505    1.626   .     S
Si357  O506    1.628   .     S
Si357  O514    1.623   .     S
Si357  O574    1.623   .     S
Si358  O471    1.621   .     S
Si358  O517    1.627   .     S
Si358  O531    1.626   .     S
Si358  O532    1.621   .     S
Si359  O517    1.629   .     S
Si359  O518    1.622   .     S
Si359  O522    1.626   .     S
Si359  O529    1.625   .     S
Si360  O518    1.624   .     S
Si360  O519    1.623   .     S
Si360  O557    1.618   .     S
Si360  O558    1.628   .     S
Si361  O519    1.621   .     S
Si361  O520    1.621   .     S
Si361  O554    1.621   .     S
Si361  O555    1.627   .     S
Si362  O520    1.627   .     S
Si362  O521    1.624   .     S
Si362  O530    1.626   .     S
Si362  O1709   1.626   1_455 S
Si363  O521    1.623   .     S
Si363  O522    1.626   .     S
Si363  O534    1.625   .     S
Si363  O535    1.620   .     S
Si364  O472    1.633   .     S
Si364  O523    1.623   .     S
Si364  O533    1.626   .     S
Si364  O561    1.623   .     S
Si365  O523    1.627   .     S
Si365  O524    1.608   .     S
Si365  O528    1.627   .     S
Si365  O529    1.626   .     S
Si366  O524    1.631   .     S
Si366  O525    1.639   .     S
Si366  O556    1.629   .     S
Si366  O563    1.596   .     S
Si367  O525    1.625   .     S
Si367  O526    1.629   .     S
Si367  O553    1.629   .     S
Si367  O564    1.621   .     S
Si368  O526    1.621   .     S
Si368  O527    1.628   .     S
Si368  O530    1.627   .     S
Si368  O1710   1.629   1_455 S
Si369  O527    1.629   .     S
Si369  O528    1.628   .     S
Si369  O536    1.628   .     S
Si369  O562    1.623   .     S
Si370  O449    1.624   .     S
Si370  O539    1.625   .     S
Si370  O553    1.624   .     S
Si370  O554    1.625   .     S
Si371  O539    1.622   .     S
Si371  O540    1.625   .     S
Si371  O544    1.623   .     S
Si371  O551    1.627   .     S
Si372  O535    1.620   .     S
Si372  O536    1.625   .     S
Si372  O4056   1.624   1_554 S
Si372  O4057   1.623   1_554 S
Si373  O532    1.619   .     S
Si373  O533    1.623   .     S
Si373  O4057   1.618   1_554 S
Si373  O4058   1.619   1_554 S
Si374  O542    1.622   .     S
Si374  O543    1.618   .     S
Si374  O552    1.627   .     S
Si374  O559    1.628   .     S
Si375  O543    1.625   .     S
Si375  O544    1.628   .     S
Si375  O556    1.614   .     S
Si375  O557    1.624   .     S
Si376  O450    1.629   .     S
Si376  O545    1.624   .     S
Si376  O555    1.629   .     S
Si376  O565    1.623   .     S
Si377  O545    1.621   .     S
Si377  O546    1.619   .     S
Si377  O550    1.628   .     S
Si377  O551    1.622   .     S
Si378  O534    1.621   .     S
Si378  O547    1.634   .     S
Si378  O567    1.620   .     S
Si378  O4062   1.622   1_554 S
Si379  O531    1.621   .     S
Si379  O547    1.631   .     S
Si379  O568    1.628   .     S
Si379  O4064   1.622   1_554 S
Si380  O548    1.625   .     S
Si380  O549    1.624   .     S
Si380  O552    1.623   .     S
Si380  O560    1.627   .     S
Si381  O549    1.627   .     S
Si381  O550    1.630   .     S
Si381  O558    1.624   .     S
Si381  O566    1.626   .     S
Si382  O498    1.629   .     S
Si382  O499    1.621   .     S
Si382  O508    1.628   .     S
Si382  O515    1.621   .     S
Si383  O504    1.624   .     S
Si383  O505    1.625   .     S
Si383  O508    1.624   .     S
Si383  O516    1.626   .     S
Al384  O392    1.722   .     S
Al384  O393    1.721   .     S
Al384  O424    1.890   .     S
Al384  O563    1.711   .     S
O405   Si879   1.627   .     S
O406   Si884   1.627   .     S
O408   Si2060  1.625   .     S
O410   Si2061  1.627   .     S
O414   Si2066  1.620   .     S
O416   Si2067  1.627   .     S
O424   H577    0.999   .     S
O449   Si1488  1.619   1_455 S
O450   Si1494  1.624   1_455 S
O452   Si3842  1.622   1_554 S
O454   Si3843  1.618   1_554 S
O458   Si3848  1.624   1_554 S
O460   Si3849  1.622   1_554 S
O493   Si1512  1.618   1_455 S
O494   Si1518  1.626   1_455 S
O496   Si3866  1.623   1_554 S
O498   Si3867  1.621   1_554 S
O502   Si3871  1.621   1_554 S
O504   Si3872  1.622   1_554 S
O537   Si948   1.626   .     S
O538   Si954   1.629   .     S
O540   Si2130  1.624   .     S
O541   Si2130  1.623   .     S
O541   Si2131  1.618   .     S
O542   Si2131  1.619   .     S
O546   Si2136  1.622   .     S
O548   Si2137  1.622   .     S
H578   C584    1.089   .     S
H579   C585    1.087   .     S
H580   C582    1.090   .     S
H581   C583    1.088   .     S
C582   C583    1.373   .     D
C582   C584    1.429   .     S
C583   S586    1.723   .     S
C584   C585    1.372   .     D
C585   S586    1.722   .     S
Si587  O683    1.625   .     S
Si587  O697    1.629   .     S
Si587  O698    1.623   .     S
Si587  O813    1.620   .     S
Si588  O683    1.629   .     S
Si588  O684    1.628   .     S
Si588  O688    1.625   .     S
Si588  O695    1.624   .     S
Si589  O684    1.622   .     S
Si589  O685    1.615   .     S
Si589  O723    1.635   .     S
Si589  O724    1.625   .     S
Si590  O685    1.622   .     S
Si590  O686    1.615   .     S
Si590  O720    1.620   .     S
Si590  O721    1.623   .     S
Si591  O686    1.622   .     S
Si591  O687    1.624   .     S
Si591  O696    1.622   .     S
Si592  O687    1.621   .     S
Si592  O688    1.626   .     S
Si592  O700    1.623   .     S
Si592  O701    1.622   .     S
Si593  O689    1.615   .     S
Si593  O699    1.628   .     S
Si593  O814    1.633   .     S
Si593  O859    1.622   .     S
Si594  O689    1.630   .     S
Si594  O690    1.595   .     S
Si594  O694    1.635   .     S
Si594  O695    1.639   .     S
Si595  O691    1.609   .     S
Si595  O692    1.631   .     S
Si595  O719    1.637   .     S
Si595  O862    1.634   .     S
Si596  O692    1.615   .     S
Si596  O693    1.626   .     S
Si596  O696    1.625   .     S
Si597  O693    1.627   .     S
Si597  O694    1.624   .     S
Si597  O702    1.628   .     S
Si597  O860    1.622   .     S
Si598  O705    1.627   .     S
Si598  O719    1.620   .     S
Si598  O720    1.628   .     S
Si598  O791    1.622   .     S
Si599  O705    1.614   .     S
Si599  O706    1.617   .     S
Si599  O710    1.640   .     S
Si599  O717    1.620   .     S
Si600  O701    1.619   .     S
Si600  O702    1.620   .     S
Si600  O707    1.621   .     S
Si600  O4222   1.625   1_554 S
Si601  O698    1.619   .     S
Si601  O699    1.621   .     S
Si601  O707    1.616   .     S
Si601  O4224   1.627   1_554 S
Si602  O708    1.619   .     S
Si602  O709    1.631   .     S
Si602  O718    1.619   .     S
Si602  O725    1.622   .     S
Si603  O709    1.611   .     S
Si603  O710    1.607   .     S
Si603  O722    1.700   .     S
Si603  O723    1.602   .     S
Si604  O711    1.622   .     S
Si604  O721    1.624   .     S
Si604  O792    1.631   .     S
Si604  O1151   1.623   .     S
Si605  O711    1.616   .     S
Si605  O712    1.614   .     S
Si605  O716    1.625   .     S
Si605  O717    1.622   .     S
Si606  O700    1.619   .     S
Si606  O713    1.633   .     S
Si606  O1153   1.618   .     S
Si606  O4228   1.620   1_554 S
Si607  O697    1.622   .     S
Si607  O713    1.632   .     S
Si607  O1154   1.623   .     S
Si607  O4230   1.627   1_554 S
Si608  O714    1.622   .     S
Si608  O715    1.623   .     S
Si608  O718    1.628   .     S
Si608  O726    1.624   .     S
Si609  O715    1.628   .     S
Si609  O716    1.627   .     S
Si609  O724    1.627   .     S
Si609  O1152   1.621   .     S
Si610  O727    1.621   .     S
Si610  O741    1.627   .     S
Si610  O742    1.626   .     S
Si610  O857    1.623   .     S
Si611  O727    1.620   .     S
Si611  O728    1.627   .     S
Si611  O732    1.618   .     S
Si611  O739    1.625   .     S
Si612  O728    1.625   .     S
Si612  O729    1.624   .     S
Si612  O767    1.624   .     S
Si612  O768    1.627   .     S
Si613  O729    1.624   .     S
Si613  O730    1.620   .     S
Si613  O764    1.624   .     S
Si613  O765    1.624   .     S
Si614  O730    1.629   .     S
Si614  O731    1.625   .     S
Si614  O740    1.628   .     S
Si614  O1333   1.619   .     S
Si615  O731    1.623   .     S
Si615  O732    1.622   .     S
Si615  O744    1.624   .     S
Si615  O745    1.627   .     S
Si616  O733    1.621   .     S
Si616  O743    1.624   .     S
Si616  O858    1.628   .     S
Si616  O867    1.622   .     S
Si617  O733    1.618   .     S
Si617  O734    1.620   .     S
Si617  O738    1.625   .     S
Si617  O739    1.624   .     S
Si618  O734    1.625   .     S
Si618  O735    1.632   .     S
Si618  O766    1.621   .     S
Si618  O869    1.622   .     S
Si619  O735    1.633   .     S
Si619  O736    1.621   .     S
Si619  O763    1.622   .     S
Si619  O870    1.625   .     S
Si620  O736    1.624   .     S
Si620  O737    1.629   .     S
Si620  O740    1.623   .     S
Si620  O1334   1.624   .     S
Si621  O737    1.628   .     S
Si621  O738    1.628   .     S
Si621  O746    1.627   .     S
Si621  O868    1.625   .     S
Si622  O749    1.621   .     S
Si622  O763    1.626   .     S
Si622  O764    1.627   .     S
Si622  O835    1.624   .     S
Si623  O749    1.620   .     S
Si623  O750    1.624   .     S
Si623  O754    1.622   .     S
Si623  O761    1.622   .     S
Si624  O745    1.626   .     S
Si624  O746    1.627   .     S
Si624  O751    1.625   .     S
Si624  O2508   1.622   .     S
Si625  O742    1.624   .     S
Si625  O743    1.622   .     S
Si625  O751    1.620   .     S
Si625  O2510   1.618   .     S
Si626  O752    1.625   .     S
Si626  O753    1.622   .     S
Si626  O762    1.627   .     S
Si626  O769    1.621   .     S
Si627  O753    1.622   .     S
Si627  O754    1.623   .     S
Si627  O766    1.624   .     S
Si627  O767    1.626   .     S
Si628  O755    1.623   .     S
Si628  O765    1.630   .     S
Si628  O836    1.628   .     S
Si628  O871    1.620   .     S
Si629  O755    1.617   .     S
Si629  O756    1.623   .     S
Si629  O760    1.628   .     S
Si629  O761    1.621   .     S
Si630  O744    1.622   .     S
Si630  O757    1.635   .     S
Si630  O873    1.625   .     S
Si630  O2514   1.624   .     S
Si631  O741    1.624   .     S
Si631  O757    1.632   .     S
Si631  O874    1.625   .     S
Si631  O2516   1.622   .     S
Si632  O758    1.626   .     S
Si632  O759    1.629   .     S
Si632  O762    1.622   .     S
Si632  O770    1.625   .     S
Si633  O759    1.630   .     S
Si633  O760    1.625   .     S
Si633  O768    1.627   .     S
Si633  O872    1.621   .     S
Si634  O725    1.627   .     S
Si634  O771    1.620   .     S
Si634  O785    1.627   .     S
Si634  O786    1.623   .     S
Si635  O771    1.624   .     S
Si635  O772    1.621   .     S
Si635  O776    1.619   .     S
Si635  O783    1.624   .     S
Si636  O772    1.623   .     S
Si636  O773    1.623   .     S
Si636  O811    1.624   .     S
Si636  O812    1.624   .     S
Si637  O773    1.622   .     S
Si637  O774    1.620   .     S
Si637  O808    1.624   .     S
Si637  O809    1.622   .     S
Si638  O774    1.625   .     S
Si638  O775    1.624   .     S
Si638  O784    1.630   .     S
Si638  O1377   1.618   .     S
Si639  O775    1.621   .     S
Si639  O776    1.623   .     S
Si639  O788    1.624   .     S
Si639  O789    1.625   .     S
Si640  O726    1.628   .     S
Si640  O777    1.624   .     S
Si640  O787    1.625   .     S
Si640  O1155   1.619   .     S
Si641  O777    1.622   .     S
Si641  O778    1.620   .     S
Si641  O782    1.625   .     S
Si641  O783    1.623   .     S
Si642  O778    1.625   .     S
Si642  O779    1.631   .     S
Si642  O810    1.621   .     S
Si642  O1157   1.623   .     S
Si643  O779    1.632   .     S
Si643  O780    1.621   .     S
Si643  O807    1.623   .     S
Si643  O1158   1.625   .     S
Si644  O780    1.624   .     S
Si644  O781    1.627   .     S
Si644  O784    1.625   .     S
Si644  O1378   1.626   .     S
Si645  O781    1.627   .     S
Si645  O782    1.628   .     S
Si645  O790    1.627   .     S
Si645  O1156   1.623   .     S
Si646  O703    1.625   .     S
Si646  O793    1.620   .     S
Si646  O807    1.627   .     S
Si646  O808    1.626   .     S
Si647  O793    1.619   .     S
Si647  O794    1.625   .     S
Si647  O798    1.623   .     S
Si647  O805    1.623   .     S
Si648  O789    1.623   .     S
Si648  O790    1.626   .     S
Si648  O795    1.624   .     S
Si648  O2552   1.623   .     S
Si649  O786    1.623   .     S
Si649  O787    1.622   .     S
Si649  O795    1.619   .     S
Si649  O2554   1.621   .     S
Si650  O797    1.621   .     S
Si650  O798    1.624   .     S
Si650  O810    1.623   .     S
Si650  O811    1.625   .     S
Si651  O704    1.625   .     S
Si651  O799    1.624   .     S
Si651  O809    1.629   .     S
Si651  O871    1.621   .     S
Si652  O799    1.618   .     S
Si652  O800    1.619   .     S
Si652  O804    1.628   .     S
Si652  O805    1.623   .     S
Si653  O788    1.622   .     S
Si653  O801    1.635   .     S
Si653  O873    1.623   .     S
Si653  O2558   1.621   .     S
Si654  O785    1.625   .     S
Si654  O801    1.630   .     S
Si654  O874    1.624   .     S
Si654  O2560   1.622   .     S
Si655  O803    1.626   .     S
Si655  O804    1.628   .     S
Si655  O812    1.623   .     S
Si655  O872    1.623   .     S
Si656  O769    1.621   .     S
Si656  O815    1.627   .     S
Si656  O829    1.626   .     S
Si656  O830    1.621   .     S
Si657  O815    1.629   .     S
Si657  O816    1.622   .     S
Si657  O820    1.626   .     S
Si657  O827    1.625   .     S
Si658  O816    1.624   .     S
Si658  O817    1.623   .     S
Si658  O855    1.618   .     S
Si658  O856    1.628   .     S
Si659  O817    1.621   .     S
Si659  O818    1.621   .     S
Si659  O852    1.621   .     S
Si659  O853    1.627   .     S
Si660  O818    1.627   .     S
Si660  O819    1.624   .     S
Si660  O828    1.626   .     S
Si661  O819    1.623   .     S
Si661  O820    1.626   .     S
Si661  O832    1.625   .     S
Si661  O833    1.620   .     S
Si662  O770    1.633   .     S
Si662  O821    1.623   .     S
Si662  O831    1.626   .     S
Si662  O859    1.623   .     S
Si663  O821    1.627   .     S
Si663  O822    1.608   .     S
Si663  O826    1.627   .     S
Si663  O827    1.626   .     S
Si664  O822    1.631   .     S
Si664  O823    1.639   .     S
Si664  O854    1.629   .     S
Si664  O861    1.596   .     S
Si665  O823    1.625   .     S
Si665  O824    1.629   .     S
Si665  O851    1.629   .     S
Si665  O862    1.621   .     S
Si666  O824    1.621   .     S
Si666  O825    1.628   .     S
Si666  O828    1.627   .     S
Si667  O825    1.629   .     S
Si667  O826    1.628   .     S
Si667  O834    1.628   .     S
Si667  O860    1.623   .     S
Si668  O747    1.624   .     S
Si668  O837    1.625   .     S
Si668  O851    1.624   .     S
Si668  O852    1.625   .     S
Si669  O837    1.622   .     S
Si669  O838    1.625   .     S
Si669  O842    1.623   .     S
Si669  O849    1.627   .     S
Si670  O833    1.620   .     S
Si670  O834    1.625   .     S
Si670  O4354   1.624   1_554 S
Si670  O4355   1.623   1_554 S
Si671  O830    1.619   .     S
Si671  O831    1.623   .     S
Si671  O4355   1.618   1_554 S
Si671  O4356   1.619   1_554 S
Si672  O840    1.622   .     S
Si672  O841    1.618   .     S
Si672  O850    1.627   .     S
Si672  O857    1.628   .     S
Si673  O841    1.625   .     S
Si673  O842    1.628   .     S
Si673  O854    1.614   .     S
Si673  O855    1.624   .     S
Si674  O748    1.629   .     S
Si674  O843    1.624   .     S
Si674  O853    1.629   .     S
Si674  O863    1.623   .     S
Si675  O843    1.621   .     S
Si675  O844    1.619   .     S
Si675  O848    1.628   .     S
Si675  O849    1.622   .     S
Si676  O832    1.621   .     S
Si676  O845    1.634   .     S
Si676  O865    1.620   .     S
Si676  O4360   1.622   1_554 S
Si677  O829    1.621   .     S
Si677  O845    1.631   .     S
Si677  O866    1.627   .     S
Si677  O4362   1.622   1_554 S
Si678  O846    1.625   .     S
Si678  O847    1.624   .     S
Si678  O850    1.623   .     S
Si678  O858    1.627   .     S
Si679  O847    1.627   .     S
Si679  O848    1.630   .     S
Si679  O856    1.624   .     S
Si679  O864    1.626   .     S
Si680  O796    1.629   .     S
Si680  O797    1.621   .     S
Si680  O806    1.628   .     S
Si680  O813    1.621   .     S
Si681  O802    1.624   .     S
Si681  O803    1.625   .     S
Si681  O806    1.624   .     S
Si681  O814    1.626   .     S
Al682  O690    1.722   .     S
Al682  O691    1.721   .     S
Al682  O722    1.890   .     S
Al682  O861    1.711   .     S
O703   Si1177  1.627   .     S
O704   Si1182  1.627   .     S
O706   Si2358  1.625   .     S
O708   Si2359  1.627   .     S
O712   Si2364  1.620   .     S
O714   Si2365  1.627   .     S
O750   Si4140  1.622   1_554 S
O752   Si4141  1.618   1_554 S
O756   Si4146  1.624   1_554 S
O758   Si4147  1.622   1_554 S
O794   Si4164  1.623   1_554 S
O796   Si4165  1.621   1_554 S
O800   Si4169  1.621   1_554 S
O802   Si4170  1.622   1_554 S
O835   Si1246  1.626   .     S
O836   Si1252  1.629   .     S
O838   Si2428  1.624   .     S
O839   Si2428  1.623   .     S
O839   Si2429  1.618   .     S
O840   Si2429  1.619   .     S
O844   Si2434  1.622   .     S
O846   Si2435  1.622   .     S
O863   Si892   1.623   1_545 S
O864   Si897   1.621   1_545 S
O865   Si894   1.618   1_545 S
O866   Si895   1.624   1_545 S
O867   Si928   1.619   1_545 S
O868   Si933   1.623   1_545 S
O869   Si930   1.623   1_545 S
O870   Si931   1.625   1_545 S
Si875  O971    1.625   .     S
Si875  O985    1.629   .     S
Si875  O986    1.623   .     S
Si875  O1101   1.620   .     S
Si876  O971    1.629   .     S
Si876  O972    1.628   .     S
Si876  O976    1.625   .     S
Si876  O983    1.624   .     S
Si877  O972    1.622   .     S
Si877  O973    1.615   .     S
Si877  O1011   1.635   .     S
Si877  O1012   1.625   .     S
Si878  O973    1.622   .     S
Si878  O974    1.615   .     S
Si878  O1008   1.620   .     S
Si878  O1009   1.623   .     S
Si879  O974    1.622   .     S
Si879  O975    1.624   .     S
Si879  O984    1.622   .     S
Si880  O975    1.621   .     S
Si880  O976    1.626   .     S
Si880  O988    1.623   .     S
Si880  O989    1.622   .     S
Si881  O977    1.615   .     S
Si881  O987    1.628   .     S
Si881  O1102   1.633   .     S
Si881  O1147   1.622   .     S
Si882  O977    1.630   .     S
Si882  O978    1.595   .     S
Si882  O982    1.635   .     S
Si882  O983    1.639   .     S
Si883  O979    1.609   .     S
Si883  O980    1.631   .     S
Si883  O1007   1.637   .     S
Si883  O1150   1.634   .     S
Si884  O980    1.615   .     S
Si884  O981    1.626   .     S
Si884  O984    1.625   .     S
Si885  O981    1.627   .     S
Si885  O982    1.624   .     S
Si885  O990    1.628   .     S
Si885  O1148   1.622   .     S
Si886  O993    1.627   .     S
Si886  O1007   1.620   .     S
Si886  O1008   1.628   .     S
Si886  O1079   1.622   .     S
Si887  O993    1.614   .     S
Si887  O994    1.617   .     S
Si887  O998    1.640   .     S
Si887  O1005   1.620   .     S
Si888  O989    1.619   .     S
Si888  O990    1.620   .     S
Si888  O995    1.621   .     S
Si888  O4510   1.625   1_554 S
Si889  O986    1.619   .     S
Si889  O987    1.621   .     S
Si889  O995    1.616   .     S
Si889  O4512   1.627   1_554 S
Si890  O996    1.619   .     S
Si890  O997    1.631   .     S
Si890  O1006   1.619   .     S
Si890  O1013   1.622   .     S
Si891  O997    1.611   .     S
Si891  O998    1.607   .     S
Si891  O1010   1.700   .     S
Si891  O1011   1.602   .     S
Si892  O999    1.622   .     S
Si892  O1009   1.624   .     S
Si892  O1080   1.631   .     S
Si892  O863    1.623   1_565 S
Si893  O999    1.616   .     S
Si893  O1000   1.614   .     S
Si893  O1004   1.625   .     S
Si893  O1005   1.622   .     S
Si894  O988    1.619   .     S
Si894  O1001   1.633   .     S
Si894  O865    1.618   1_565 S
Si894  O4516   1.620   1_554 S
Si895  O985    1.622   .     S
Si895  O1001   1.632   .     S
Si895  O866    1.624   1_565 S
Si895  O4518   1.627   1_554 S
Si896  O1002   1.622   .     S
Si896  O1003   1.623   .     S
Si896  O1006   1.628   .     S
Si896  O1014   1.624   .     S
Si897  O1003   1.628   .     S
Si897  O1004   1.627   .     S
Si897  O1012   1.627   .     S
Si897  O864    1.621   1_565 S
Si898  O1015   1.621   .     S
Si898  O1029   1.627   .     S
Si898  O1030   1.626   .     S
Si898  O1145   1.623   .     S
Si899  O1015   1.620   .     S
Si899  O1016   1.627   .     S
Si899  O1020   1.618   .     S
Si899  O1027   1.625   .     S
Si900  O1016   1.625   .     S
Si900  O1017   1.624   .     S
Si900  O1055   1.624   .     S
Si900  O1056   1.627   .     S
Si901  O1017   1.624   .     S
Si901  O1018   1.620   .     S
Si901  O1052   1.624   .     S
Si901  O1053   1.624   .     S
Si902  O1018   1.629   .     S
Si902  O1019   1.625   .     S
Si902  O1028   1.628   .     S
Si902  O1621   1.619   .     S
Si903  O1019   1.623   .     S
Si903  O1020   1.622   .     S
Si903  O1032   1.624   .     S
Si903  O1033   1.627   .     S
Si904  O1021   1.621   .     S
Si904  O1031   1.624   .     S
Si904  O1146   1.628   .     S
Si904  O1155   1.622   .     S
Si905  O1021   1.618   .     S
Si905  O1022   1.620   .     S
Si905  O1026   1.625   .     S
Si905  O1027   1.624   .     S
Si906  O1022   1.625   .     S
Si906  O1023   1.632   .     S
Si906  O1054   1.621   .     S
Si906  O1157   1.622   .     S
Si907  O1023   1.633   .     S
Si907  O1024   1.621   .     S
Si907  O1051   1.622   .     S
Si907  O1158   1.625   .     S
Si908  O1024   1.624   .     S
Si908  O1025   1.629   .     S
Si908  O1028   1.623   .     S
Si908  O1622   1.624   .     S
Si909  O1025   1.628   .     S
Si909  O1026   1.628   .     S
Si909  O1034   1.627   .     S
Si909  O1156   1.625   .     S
Si910  O1037   1.621   .     S
Si910  O1051   1.626   .     S
Si910  O1052   1.627   .     S
Si910  O1123   1.624   .     S
Si911  O1037   1.620   .     S
Si911  O1038   1.624   .     S
Si911  O1042   1.622   .     S
Si911  O1049   1.622   .     S
Si912  O1033   1.626   .     S
Si912  O1034   1.627   .     S
Si912  O1039   1.625   .     S
Si912  O2796   1.622   .     S
Si913  O1030   1.624   .     S
Si913  O1031   1.622   .     S
Si913  O1039   1.620   .     S
Si913  O2798   1.618   .     S
Si914  O1040   1.625   .     S
Si914  O1041   1.622   .     S
Si914  O1050   1.627   .     S
Si914  O1057   1.621   .     S
Si915  O1041   1.622   .     S
Si915  O1042   1.623   .     S
Si915  O1054   1.624   .     S
Si915  O1055   1.626   .     S
Si916  O1043   1.623   .     S
Si916  O1053   1.630   .     S
Si916  O1124   1.628   .     S
Si916  O1159   1.620   .     S
Si917  O1043   1.617   .     S
Si917  O1044   1.623   .     S
Si917  O1048   1.628   .     S
Si917  O1049   1.621   .     S
Si918  O1032   1.622   .     S
Si918  O1045   1.635   .     S
Si918  O1161   1.625   .     S
Si918  O2802   1.624   .     S
Si919  O1029   1.624   .     S
Si919  O1045   1.632   .     S
Si919  O1162   1.625   .     S
Si919  O2804   1.622   .     S
Si920  O1046   1.626   .     S
Si920  O1047   1.629   .     S
Si920  O1050   1.622   .     S
Si920  O1058   1.625   .     S
Si921  O1047   1.630   .     S
Si921  O1048   1.625   .     S
Si921  O1056   1.627   .     S
Si921  O1160   1.621   .     S
Si922  O1013   1.627   .     S
Si922  O1059   1.620   .     S
Si922  O1073   1.627   .     S
Si922  O1074   1.623   .     S
Si923  O1059   1.624   .     S
Si923  O1060   1.621   .     S
Si923  O1064   1.619   .     S
Si923  O1071   1.624   .     S
Si924  O1060   1.623   .     S
Si924  O1061   1.623   .     S
Si924  O1099   1.624   .     S
Si924  O1100   1.624   .     S
Si925  O1061   1.622   .     S
Si925  O1062   1.620   .     S
Si925  O1096   1.624   .     S
Si925  O1097   1.622   .     S
Si926  O1062   1.625   .     S
Si926  O1063   1.624   .     S
Si926  O1072   1.630   .     S
Si926  O1665   1.618   .     S
Si927  O1063   1.621   .     S
Si927  O1064   1.623   .     S
Si927  O1076   1.624   .     S
Si927  O1077   1.625   .     S
Si928  O1014   1.628   .     S
Si928  O1065   1.624   .     S
Si928  O1075   1.625   .     S
Si928  O867    1.619   1_565 S
Si929  O1065   1.622   .     S
Si929  O1066   1.620   .     S
Si929  O1070   1.625   .     S
Si929  O1071   1.623   .     S
Si930  O1066   1.625   .     S
Si930  O1067   1.631   .     S
Si930  O1098   1.621   .     S
Si930  O869    1.623   1_565 S
Si931  O1067   1.632   .     S
Si931  O1068   1.621   .     S
Si931  O1095   1.623   .     S
Si931  O870    1.625   1_565 S
Si932  O1068   1.624   .     S
Si932  O1069   1.627   .     S
Si932  O1072   1.625   .     S
Si932  O1666   1.626   .     S
Si933  O1069   1.627   .     S
Si933  O1070   1.628   .     S
Si933  O1078   1.627   .     S
Si933  O868    1.623   1_565 S
Si934  O991    1.625   .     S
Si934  O1081   1.620   .     S
Si934  O1095   1.627   .     S
Si934  O1096   1.626   .     S
Si935  O1081   1.619   .     S
Si935  O1082   1.625   .     S
Si935  O1086   1.623   .     S
Si935  O1093   1.623   .     S
Si936  O1077   1.623   .     S
Si936  O1078   1.626   .     S
Si936  O1083   1.624   .     S
Si936  O2840   1.623   .     S
Si937  O1074   1.623   .     S
Si937  O1075   1.622   .     S
Si937  O1083   1.619   .     S
Si937  O2842   1.621   .     S
Si938  O1085   1.621   .     S
Si938  O1086   1.624   .     S
Si938  O1098   1.623   .     S
Si938  O1099   1.625   .     S
Si939  O992    1.625   .     S
Si939  O1087   1.624   .     S
Si939  O1097   1.629   .     S
Si939  O1159   1.621   .     S
Si940  O1087   1.618   .     S
Si940  O1088   1.619   .     S
Si940  O1092   1.628   .     S
Si940  O1093   1.623   .     S
Si941  O1076   1.622   .     S
Si941  O1089   1.635   .     S
Si941  O1161   1.623   .     S
Si941  O2846   1.621   .     S
Si942  O1073   1.625   .     S
Si942  O1089   1.630   .     S
Si942  O1162   1.624   .     S
Si942  O2848   1.622   .     S
Si943  O1091   1.626   .     S
Si943  O1092   1.628   .     S
Si943  O1100   1.623   .     S
Si943  O1160   1.623   .     S
Si944  O1057   1.621   .     S
Si944  O1103   1.627   .     S
Si944  O1117   1.626   .     S
Si944  O1118   1.621   .     S
Si945  O1103   1.629   .     S
Si945  O1104   1.622   .     S
Si945  O1108   1.626   .     S
Si945  O1115   1.625   .     S
Si946  O1104   1.624   .     S
Si946  O1105   1.623   .     S
Si946  O1143   1.618   .     S
Si946  O1144   1.628   .     S
Si947  O1105   1.621   .     S
Si947  O1106   1.621   .     S
Si947  O1140   1.621   .     S
Si947  O1141   1.627   .     S
Si948  O1106   1.627   .     S
Si948  O1107   1.624   .     S
Si948  O1116   1.626   .     S
Si949  O1107   1.623   .     S
Si949  O1108   1.626   .     S
Si949  O1120   1.625   .     S
Si949  O1121   1.620   .     S
Si950  O1058   1.633   .     S
Si950  O1109   1.623   .     S
Si950  O1119   1.626   .     S
Si950  O1147   1.623   .     S
Si951  O1109   1.627   .     S
Si951  O1110   1.608   .     S
Si951  O1114   1.627   .     S
Si951  O1115   1.626   .     S
Si952  O1110   1.631   .     S
Si952  O1111   1.639   .     S
Si952  O1142   1.629   .     S
Si952  O1149   1.596   .     S
Si953  O1111   1.625   .     S
Si953  O1112   1.629   .     S
Si953  O1139   1.629   .     S
Si953  O1150   1.621   .     S
Si954  O1112   1.621   .     S
Si954  O1113   1.628   .     S
Si954  O1116   1.627   .     S
Si955  O1113   1.629   .     S
Si955  O1114   1.628   .     S
Si955  O1122   1.628   .     S
Si955  O1148   1.623   .     S
Si956  O1035   1.624   .     S
Si956  O1125   1.625   .     S
Si956  O1139   1.624   .     S
Si956  O1140   1.625   .     S
Si957  O1125   1.622   .     S
Si957  O1126   1.625   .     S
Si957  O1130   1.623   .     S
Si957  O1137   1.627   .     S
Si958  O1121   1.620   .     S
Si958  O1122   1.625   .     S
Si958  O4642   1.624   1_554 S
Si958  O4643   1.623   1_554 S
Si959  O1118   1.619   .     S
Si959  O1119   1.623   .     S
Si959  O4643   1.618   1_554 S
Si959  O4644   1.619   1_554 S
Si960  O1128   1.622   .     S
Si960  O1129   1.618   .     S
Si960  O1138   1.627   .     S
Si960  O1145   1.628   .     S
Si961  O1129   1.625   .     S
Si961  O1130   1.628   .     S
Si961  O1142   1.614   .     S
Si961  O1143   1.624   .     S
Si962  O1036   1.629   .     S
Si962  O1131   1.624   .     S
Si962  O1141   1.629   .     S
Si962  O1151   1.623   .     S
Si963  O1131   1.621   .     S
Si963  O1132   1.619   .     S
Si963  O1136   1.628   .     S
Si963  O1137   1.622   .     S
Si964  O1120   1.621   .     S
Si964  O1133   1.634   .     S
Si964  O1153   1.620   .     S
Si964  O4648   1.622   1_554 S
Si965  O1117   1.621   .     S
Si965  O1133   1.631   .     S
Si965  O1154   1.628   .     S
Si965  O4650   1.622   1_554 S
Si966  O1134   1.625   .     S
Si966  O1135   1.624   .     S
Si966  O1138   1.623   .     S
Si966  O1146   1.627   .     S
Si967  O1135   1.627   .     S
Si967  O1136   1.630   .     S
Si967  O1144   1.624   .     S
Si967  O1152   1.626   .     S
Si968  O1084   1.629   .     S
Si968  O1085   1.621   .     S
Si968  O1094   1.628   .     S
Si968  O1101   1.621   .     S
Si969  O1090   1.624   .     S
Si969  O1091   1.625   .     S
Si969  O1094   1.624   .     S
Si969  O1102   1.626   .     S
Al970  O978    1.722   .     S
Al970  O979    1.721   .     S
Al970  O1010   1.890   .     S
Al970  O1149   1.711   .     S
O991   Si1465  1.627   .     S
O992   Si1470  1.627   .     S
O994   Si2646  1.625   .     S
O996   Si2647  1.627   .     S
O1000  Si2652  1.620   .     S
O1002  Si2653  1.627   .     S
O1010  H1163   0.999   .     S
O1038  Si4428  1.622   1_554 S
O1040  Si4429  1.618   1_554 S
O1044  Si4434  1.624   1_554 S
O1046  Si4435  1.622   1_554 S
O1082  Si4452  1.623   1_554 S
O1084  Si4453  1.621   1_554 S
O1088  Si4457  1.621   1_554 S
O1090  Si4458  1.622   1_554 S
O1123  Si1534  1.626   .     S
O1124  Si1540  1.629   .     S
O1126  Si2716  1.624   .     S
O1127  Si2716  1.623   .     S
O1127  Si2717  1.618   .     S
O1128  Si2717  1.619   .     S
O1132  Si2722  1.622   .     S
O1134  Si2723  1.622   .     S
H1164  C1170   1.089   .     S
H1165  C1171   1.087   .     S
H1166  C1168   1.090   .     S
H1167  C1169   1.088   .     S
C1168  C1169   1.373   .     D
C1168  C1170   1.429   .     S
C1169  S1172   1.723   .     S
C1170  C1171   1.372   .     D
C1171  S1172   1.722   .     S
Si1173 O1269   1.625   .     S
Si1173 O1283   1.629   .     S
Si1173 O1284   1.623   .     S
Si1173 O1399   1.620   .     S
Si1174 O1269   1.629   .     S
Si1174 O1270   1.628   .     S
Si1174 O1274   1.625   .     S
Si1174 O1281   1.624   .     S
Si1175 O1270   1.622   .     S
Si1175 O1271   1.615   .     S
Si1175 O1309   1.635   .     S
Si1175 O1310   1.625   .     S
Si1176 O1271   1.622   .     S
Si1176 O1272   1.615   .     S
Si1176 O1306   1.620   .     S
Si1176 O1307   1.623   .     S
Si1177 O1272   1.622   .     S
Si1177 O1273   1.624   .     S
Si1177 O1282   1.622   .     S
Si1178 O1273   1.621   .     S
Si1178 O1274   1.626   .     S
Si1178 O1286   1.623   .     S
Si1178 O1287   1.622   .     S
Si1179 O1275   1.615   .     S
Si1179 O1285   1.628   .     S
Si1179 O1400   1.633   .     S
Si1179 O1445   1.622   .     S
Si1180 O1275   1.630   .     S
Si1180 O1276   1.595   .     S
Si1180 O1280   1.635   .     S
Si1180 O1281   1.639   .     S
Si1181 O1277   1.609   .     S
Si1181 O1278   1.631   .     S
Si1181 O1305   1.637   .     S
Si1181 O1448   1.634   .     S
Si1182 O1278   1.615   .     S
Si1182 O1279   1.626   .     S
Si1182 O1282   1.625   .     S
Si1183 O1279   1.627   .     S
Si1183 O1280   1.624   .     S
Si1183 O1288   1.628   .     S
Si1183 O1446   1.622   .     S
Si1184 O1291   1.627   .     S
Si1184 O1305   1.620   .     S
Si1184 O1306   1.628   .     S
Si1184 O1377   1.622   .     S
Si1185 O1291   1.614   .     S
Si1185 O1292   1.617   .     S
Si1185 O1296   1.640   .     S
Si1185 O1303   1.620   .     S
Si1186 O1287   1.619   .     S
Si1186 O1288   1.620   .     S
Si1186 O1293   1.621   .     S
Si1186 O4808   1.625   1_554 S
Si1187 O1284   1.619   .     S
Si1187 O1285   1.621   .     S
Si1187 O1293   1.616   .     S
Si1187 O4810   1.627   1_554 S
Si1188 O1294   1.619   .     S
Si1188 O1295   1.631   .     S
Si1188 O1304   1.619   .     S
Si1188 O1311   1.622   .     S
Si1189 O1295   1.611   .     S
Si1189 O1296   1.607   .     S
Si1189 O1308   1.700   .     S
Si1189 O1309   1.602   .     S
Si1190 O1297   1.622   .     S
Si1190 O1307   1.624   .     S
Si1190 O1378   1.631   .     S
Si1190 O1737   1.623   .     S
Si1191 O1297   1.616   .     S
Si1191 O1298   1.614   .     S
Si1191 O1302   1.625   .     S
Si1191 O1303   1.622   .     S
Si1192 O1286   1.619   .     S
Si1192 O1299   1.633   .     S
Si1192 O1739   1.618   .     S
Si1192 O4814   1.620   1_554 S
Si1193 O1283   1.622   .     S
Si1193 O1299   1.632   .     S
Si1193 O1740   1.623   .     S
Si1193 O4816   1.627   1_554 S
Si1194 O1300   1.622   .     S
Si1194 O1301   1.623   .     S
Si1194 O1304   1.628   .     S
Si1194 O1312   1.624   .     S
Si1195 O1301   1.628   .     S
Si1195 O1302   1.627   .     S
Si1195 O1310   1.627   .     S
Si1195 O1738   1.621   .     S
Si1196 O1313   1.621   .     S
Si1196 O1327   1.627   .     S
Si1196 O1328   1.626   .     S
Si1196 O1443   1.623   .     S
Si1197 O1313   1.620   .     S
Si1197 O1314   1.627   .     S
Si1197 O1318   1.618   .     S
Si1197 O1325   1.625   .     S
Si1198 O1314   1.625   .     S
Si1198 O1315   1.624   .     S
Si1198 O1353   1.624   .     S
Si1198 O1354   1.627   .     S
Si1199 O1315   1.624   .     S
Si1199 O1316   1.620   .     S
Si1199 O1350   1.624   .     S
Si1199 O1351   1.624   .     S
Si1200 O1316   1.629   .     S
Si1200 O1317   1.625   .     S
Si1200 O1326   1.628   .     S
Si1200 O161    1.619   1_655 S
Si1201 O1317   1.623   .     S
Si1201 O1318   1.622   .     S
Si1201 O1330   1.624   .     S
Si1201 O1331   1.627   .     S
Si1202 O1319   1.621   .     S
Si1202 O1329   1.624   .     S
Si1202 O1444   1.628   .     S
Si1202 O1453   1.622   .     S
Si1203 O1319   1.618   .     S
Si1203 O1320   1.620   .     S
Si1203 O1324   1.625   .     S
Si1203 O1325   1.624   .     S
Si1204 O1320   1.625   .     S
Si1204 O1321   1.632   .     S
Si1204 O1352   1.621   .     S
Si1204 O1455   1.622   .     S
Si1205 O1321   1.633   .     S
Si1205 O1322   1.621   .     S
Si1205 O1349   1.622   .     S
Si1205 O1456   1.625   .     S
Si1206 O1322   1.624   .     S
Si1206 O1323   1.629   .     S
Si1206 O1326   1.623   .     S
Si1206 O162    1.624   1_655 S
Si1207 O1323   1.628   .     S
Si1207 O1324   1.628   .     S
Si1207 O1332   1.627   .     S
Si1207 O1454   1.625   .     S
Si1208 O1335   1.621   .     S
Si1208 O1349   1.626   .     S
Si1208 O1350   1.627   .     S
Si1208 O1421   1.624   .     S
Si1209 O1335   1.620   .     S
Si1209 O1336   1.624   .     S
Si1209 O1340   1.622   .     S
Si1209 O1347   1.622   .     S
Si1210 O1331   1.626   .     S
Si1210 O1332   1.627   .     S
Si1210 O1337   1.625   .     S
Si1210 O3094   1.622   .     S
Si1211 O1328   1.624   .     S
Si1211 O1329   1.622   .     S
Si1211 O1337   1.620   .     S
Si1211 O3096   1.618   .     S
Si1212 O1338   1.625   .     S
Si1212 O1339   1.622   .     S
Si1212 O1348   1.627   .     S
Si1212 O1355   1.621   .     S
Si1213 O1339   1.622   .     S
Si1213 O1340   1.623   .     S
Si1213 O1352   1.624   .     S
Si1213 O1353   1.626   .     S
Si1214 O1341   1.623   .     S
Si1214 O1351   1.630   .     S
Si1214 O1422   1.628   .     S
Si1214 O1457   1.620   .     S
Si1215 O1341   1.617   .     S
Si1215 O1342   1.623   .     S
Si1215 O1346   1.628   .     S
Si1215 O1347   1.621   .     S
Si1216 O1330   1.622   .     S
Si1216 O1343   1.635   .     S
Si1216 O1459   1.625   .     S
Si1216 O3100   1.624   .     S
Si1217 O1327   1.624   .     S
Si1217 O1343   1.632   .     S
Si1217 O1460   1.625   .     S
Si1217 O3102   1.622   .     S
Si1218 O1344   1.626   .     S
Si1218 O1345   1.629   .     S
Si1218 O1348   1.622   .     S
Si1218 O1356   1.625   .     S
Si1219 O1345   1.630   .     S
Si1219 O1346   1.625   .     S
Si1219 O1354   1.627   .     S
Si1219 O1458   1.621   .     S
Si1220 O1311   1.627   .     S
Si1220 O1357   1.620   .     S
Si1220 O1371   1.627   .     S
Si1220 O1372   1.623   .     S
Si1221 O1357   1.624   .     S
Si1221 O1358   1.621   .     S
Si1221 O1362   1.619   .     S
Si1221 O1369   1.624   .     S
Si1222 O1358   1.623   .     S
Si1222 O1359   1.623   .     S
Si1222 O1397   1.624   .     S
Si1222 O1398   1.624   .     S
Si1223 O1359   1.622   .     S
Si1223 O1360   1.620   .     S
Si1223 O1394   1.624   .     S
Si1223 O1395   1.622   .     S
Si1224 O1360   1.625   .     S
Si1224 O1361   1.624   .     S
Si1224 O1370   1.630   .     S
Si1224 O205    1.618   1_655 S
Si1225 O1361   1.621   .     S
Si1225 O1362   1.623   .     S
Si1225 O1374   1.624   .     S
Si1225 O1375   1.625   .     S
Si1226 O1312   1.628   .     S
Si1226 O1363   1.624   .     S
Si1226 O1373   1.625   .     S
Si1226 O1741   1.619   .     S
Si1227 O1363   1.622   .     S
Si1227 O1364   1.620   .     S
Si1227 O1368   1.625   .     S
Si1227 O1369   1.623   .     S
Si1228 O1364   1.625   .     S
Si1228 O1365   1.631   .     S
Si1228 O1396   1.621   .     S
Si1228 O1743   1.623   .     S
Si1229 O1365   1.632   .     S
Si1229 O1366   1.621   .     S
Si1229 O1393   1.623   .     S
Si1229 O1744   1.625   .     S
Si1230 O1366   1.624   .     S
Si1230 O1367   1.627   .     S
Si1230 O1370   1.625   .     S
Si1230 O206    1.626   1_655 S
Si1231 O1367   1.627   .     S
Si1231 O1368   1.628   .     S
Si1231 O1376   1.627   .     S
Si1231 O1742   1.623   .     S
Si1232 O1289   1.625   .     S
Si1232 O1379   1.620   .     S
Si1232 O1393   1.627   .     S
Si1232 O1394   1.626   .     S
Si1233 O1379   1.619   .     S
Si1233 O1380   1.625   .     S
Si1233 O1384   1.623   .     S
Si1233 O1391   1.623   .     S
Si1234 O1375   1.623   .     S
Si1234 O1376   1.626   .     S
Si1234 O1381   1.624   .     S
Si1234 O3138   1.623   .     S
Si1235 O1372   1.623   .     S
Si1235 O1373   1.622   .     S
Si1235 O1381   1.619   .     S
Si1235 O3140   1.621   .     S
Si1236 O1383   1.621   .     S
Si1236 O1384   1.624   .     S
Si1236 O1396   1.623   .     S
Si1236 O1397   1.625   .     S
Si1237 O1290   1.625   .     S
Si1237 O1385   1.624   .     S
Si1237 O1395   1.629   .     S
Si1237 O1457   1.621   .     S
Si1238 O1385   1.618   .     S
Si1238 O1386   1.619   .     S
Si1238 O1390   1.628   .     S
Si1238 O1391   1.623   .     S
Si1239 O1374   1.622   .     S
Si1239 O1387   1.635   .     S
Si1239 O1459   1.623   .     S
Si1239 O3144   1.621   .     S
Si1240 O1371   1.625   .     S
Si1240 O1387   1.630   .     S
Si1240 O1460   1.624   .     S
Si1240 O3146   1.622   .     S
Si1241 O1389   1.626   .     S
Si1241 O1390   1.628   .     S
Si1241 O1398   1.623   .     S
Si1241 O1458   1.623   .     S
Si1242 O1355   1.621   .     S
Si1242 O1401   1.627   .     S
Si1242 O1415   1.626   .     S
Si1242 O1416   1.621   .     S
Si1243 O1401   1.629   .     S
Si1243 O1402   1.622   .     S
Si1243 O1406   1.626   .     S
Si1243 O1413   1.625   .     S
Si1244 O1402   1.624   .     S
Si1244 O1403   1.623   .     S
Si1244 O1441   1.618   .     S
Si1244 O1442   1.628   .     S
Si1245 O1403   1.621   .     S
Si1245 O1404   1.621   .     S
Si1245 O1438   1.621   .     S
Si1245 O1439   1.627   .     S
Si1246 O1404   1.627   .     S
Si1246 O1405   1.624   .     S
Si1246 O1414   1.626   .     S
Si1247 O1405   1.623   .     S
Si1247 O1406   1.626   .     S
Si1247 O1418   1.625   .     S
Si1247 O1419   1.620   .     S
Si1248 O1356   1.633   .     S
Si1248 O1407   1.623   .     S
Si1248 O1417   1.626   .     S
Si1248 O1445   1.623   .     S
Si1249 O1407   1.627   .     S
Si1249 O1408   1.608   .     S
Si1249 O1412   1.627   .     S
Si1249 O1413   1.626   .     S
Si1250 O1408   1.631   .     S
Si1250 O1409   1.639   .     S
Si1250 O1440   1.629   .     S
Si1250 O1447   1.596   .     S
Si1251 O1409   1.625   .     S
Si1251 O1410   1.629   .     S
Si1251 O1437   1.629   .     S
Si1251 O1448   1.621   .     S
Si1252 O1410   1.621   .     S
Si1252 O1411   1.628   .     S
Si1252 O1414   1.627   .     S
Si1253 O1411   1.629   .     S
Si1253 O1412   1.628   .     S
Si1253 O1420   1.628   .     S
Si1253 O1446   1.623   .     S
Si1254 O1333   1.624   .     S
Si1254 O1423   1.625   .     S
Si1254 O1437   1.624   .     S
Si1254 O1438   1.625   .     S
Si1255 O1423   1.622   .     S
Si1255 O1424   1.625   .     S
Si1255 O1428   1.623   .     S
Si1255 O1435   1.627   .     S
Si1256 O1419   1.620   .     S
Si1256 O1420   1.625   .     S
Si1256 O4940   1.624   1_554 S
Si1256 O4941   1.623   1_554 S
Si1257 O1416   1.619   .     S
Si1257 O1417   1.623   .     S
Si1257 O4941   1.618   1_554 S
Si1257 O4942   1.619   1_554 S
Si1258 O1426   1.622   .     S
Si1258 O1427   1.618   .     S
Si1258 O1436   1.627   .     S
Si1258 O1443   1.628   .     S
Si1259 O1427   1.625   .     S
Si1259 O1428   1.628   .     S
Si1259 O1440   1.614   .     S
Si1259 O1441   1.624   .     S
Si1260 O1334   1.629   .     S
Si1260 O1429   1.624   .     S
Si1260 O1439   1.629   .     S
Si1260 O1449   1.623   .     S
Si1261 O1429   1.621   .     S
Si1261 O1430   1.619   .     S
Si1261 O1434   1.628   .     S
Si1261 O1435   1.622   .     S
Si1262 O1418   1.621   .     S
Si1262 O1431   1.634   .     S
Si1262 O1451   1.620   .     S
Si1262 O4946   1.622   1_554 S
Si1263 O1415   1.621   .     S
Si1263 O1431   1.631   .     S
Si1263 O1452   1.627   .     S
Si1263 O4948   1.622   1_554 S
Si1264 O1432   1.625   .     S
Si1264 O1433   1.624   .     S
Si1264 O1436   1.623   .     S
Si1264 O1444   1.627   .     S
Si1265 O1433   1.627   .     S
Si1265 O1434   1.630   .     S
Si1265 O1442   1.624   .     S
Si1265 O1450   1.626   .     S
Si1266 O1382   1.629   .     S
Si1266 O1383   1.621   .     S
Si1266 O1392   1.628   .     S
Si1266 O1399   1.621   .     S
Si1267 O1388   1.624   .     S
Si1267 O1389   1.625   .     S
Si1267 O1392   1.624   .     S
Si1267 O1400   1.626   .     S
Al1268 O1276   1.722   .     S
Al1268 O1277   1.721   .     S
Al1268 O1308   1.890   .     S
Al1268 O1447   1.711   .     S
O1289  Si5     1.627   1_655 S
O1290  Si10    1.627   1_655 S
O1292  Si2944  1.625   .     S
O1294  Si2945  1.627   .     S
O1298  Si2950  1.620   .     S
O1300  Si2951  1.627   .     S
O1336  Si4726  1.622   1_554 S
O1338  Si4727  1.618   1_554 S
O1342  Si4732  1.624   1_554 S
O1344  Si4733  1.622   1_554 S
O1380  Si4750  1.623   1_554 S
O1382  Si4751  1.621   1_554 S
O1386  Si4755  1.621   1_554 S
O1388  Si4756  1.622   1_554 S
O1421  Si74    1.626   1_655 S
O1422  Si80    1.629   1_655 S
O1424  Si3014  1.624   .     S
O1425  Si3014  1.623   .     S
O1425  Si3015  1.618   .     S
O1426  Si3015  1.619   .     S
O1430  Si3020  1.622   .     S
O1432  Si3021  1.622   .     S
O1449  Si1478  1.623   1_545 S
O1450  Si1483  1.621   1_545 S
O1451  Si1480  1.618   1_545 S
O1452  Si1481  1.624   1_545 S
O1453  Si1514  1.619   1_545 S
O1454  Si1519  1.623   1_545 S
O1455  Si1516  1.623   1_545 S
O1456  Si1517  1.625   1_545 S
Si1461 O1557   1.625   .     S
Si1461 O1571   1.629   .     S
Si1461 O1572   1.623   .     S
Si1461 O1687   1.620   .     S
Si1462 O1557   1.629   .     S
Si1462 O1558   1.628   .     S
Si1462 O1562   1.625   .     S
Si1462 O1569   1.624   .     S
Si1463 O1558   1.622   .     S
Si1463 O1559   1.615   .     S
Si1463 O1597   1.635   .     S
Si1463 O1598   1.625   .     S
Si1464 O1559   1.622   .     S
Si1464 O1560   1.615   .     S
Si1464 O1594   1.620   .     S
Si1464 O1595   1.623   .     S
Si1465 O1560   1.622   .     S
Si1465 O1561   1.624   .     S
Si1465 O1570   1.622   .     S
Si1466 O1561   1.621   .     S
Si1466 O1562   1.626   .     S
Si1466 O1574   1.623   .     S
Si1466 O1575   1.622   .     S
Si1467 O1563   1.615   .     S
Si1467 O1573   1.628   .     S
Si1467 O1688   1.633   .     S
Si1467 O1733   1.622   .     S
Si1468 O1563   1.630   .     S
Si1468 O1564   1.595   .     S
Si1468 O1568   1.635   .     S
Si1468 O1569   1.639   .     S
Si1469 O1565   1.609   .     S
Si1469 O1566   1.631   .     S
Si1469 O1593   1.637   .     S
Si1469 O1736   1.634   .     S
Si1470 O1566   1.615   .     S
Si1470 O1567   1.626   .     S
Si1470 O1570   1.625   .     S
Si1471 O1567   1.627   .     S
Si1471 O1568   1.624   .     S
Si1471 O1576   1.628   .     S
Si1471 O1734   1.622   .     S
Si1472 O1579   1.627   .     S
Si1472 O1593   1.620   .     S
Si1472 O1594   1.628   .     S
Si1472 O1665   1.622   .     S
Si1473 O1579   1.614   .     S
Si1473 O1580   1.617   .     S
Si1473 O1584   1.640   .     S
Si1473 O1591   1.620   .     S
Si1474 O1575   1.619   .     S
Si1474 O1576   1.620   .     S
Si1474 O1581   1.621   .     S
Si1474 O5096   1.625   1_554 S
Si1475 O1572   1.619   .     S
Si1475 O1573   1.621   .     S
Si1475 O1581   1.616   .     S
Si1475 O5098   1.627   1_554 S
Si1476 O1582   1.619   .     S
Si1476 O1583   1.631   .     S
Si1476 O1592   1.619   .     S
Si1476 O1599   1.622   .     S
Si1477 O1583   1.611   .     S
Si1477 O1584   1.607   .     S
Si1477 O1596   1.700   .     S
Si1477 O1597   1.602   .     S
Si1478 O1585   1.622   .     S
Si1478 O1595   1.624   .     S
Si1478 O1666   1.631   .     S
Si1478 O1449   1.623   1_565 S
Si1479 O1585   1.616   .     S
Si1479 O1586   1.614   .     S
Si1479 O1590   1.625   .     S
Si1479 O1591   1.622   .     S
Si1480 O1574   1.619   .     S
Si1480 O1587   1.633   .     S
Si1480 O1451   1.618   1_565 S
Si1480 O5102   1.620   1_554 S
Si1481 O1571   1.622   .     S
Si1481 O1587   1.632   .     S
Si1481 O1452   1.624   1_565 S
Si1481 O5104   1.627   1_554 S
Si1482 O1588   1.622   .     S
Si1482 O1589   1.623   .     S
Si1482 O1592   1.628   .     S
Si1482 O1600   1.624   .     S
Si1483 O1589   1.628   .     S
Si1483 O1590   1.627   .     S
Si1483 O1598   1.627   .     S
Si1483 O1450   1.621   1_565 S
Si1484 O1601   1.621   .     S
Si1484 O1615   1.627   .     S
Si1484 O1616   1.626   .     S
Si1484 O1731   1.623   .     S
Si1485 O1601   1.620   .     S
Si1485 O1602   1.627   .     S
Si1485 O1606   1.618   .     S
Si1485 O1613   1.625   .     S
Si1486 O1602   1.625   .     S
Si1486 O1603   1.624   .     S
Si1486 O1641   1.624   .     S
Si1486 O1642   1.627   .     S
Si1487 O1603   1.624   .     S
Si1487 O1604   1.620   .     S
Si1487 O1638   1.624   .     S
Si1487 O1639   1.624   .     S
Si1488 O1604   1.629   .     S
Si1488 O1605   1.625   .     S
Si1488 O1614   1.628   .     S
Si1488 O449    1.619   1_655 S
Si1489 O1605   1.623   .     S
Si1489 O1606   1.622   .     S
Si1489 O1618   1.624   .     S
Si1489 O1619   1.627   .     S
Si1490 O1607   1.621   .     S
Si1490 O1617   1.624   .     S
Si1490 O1732   1.628   .     S
Si1490 O1741   1.622   .     S
Si1491 O1607   1.618   .     S
Si1491 O1608   1.620   .     S
Si1491 O1612   1.625   .     S
Si1491 O1613   1.624   .     S
Si1492 O1608   1.625   .     S
Si1492 O1609   1.632   .     S
Si1492 O1640   1.621   .     S
Si1492 O1743   1.622   .     S
Si1493 O1609   1.633   .     S
Si1493 O1610   1.621   .     S
Si1493 O1637   1.622   .     S
Si1493 O1744   1.625   .     S
Si1494 O1610   1.624   .     S
Si1494 O1611   1.629   .     S
Si1494 O1614   1.623   .     S
Si1494 O450    1.624   1_655 S
Si1495 O1611   1.628   .     S
Si1495 O1612   1.628   .     S
Si1495 O1620   1.627   .     S
Si1495 O1742   1.625   .     S
Si1496 O1623   1.621   .     S
Si1496 O1637   1.626   .     S
Si1496 O1638   1.627   .     S
Si1496 O1709   1.624   .     S
Si1497 O1623   1.620   .     S
Si1497 O1624   1.624   .     S
Si1497 O1628   1.622   .     S
Si1497 O1635   1.622   .     S
Si1498 O1619   1.626   .     S
Si1498 O1620   1.627   .     S
Si1498 O1625   1.625   .     S
Si1498 O3382   1.622   .     S
Si1499 O1616   1.624   .     S
Si1499 O1617   1.622   .     S
Si1499 O1625   1.620   .     S
Si1499 O3384   1.618   .     S
Si1500 O1626   1.625   .     S
Si1500 O1627   1.622   .     S
Si1500 O1636   1.627   .     S
Si1500 O1643   1.621   .     S
Si1501 O1627   1.622   .     S
Si1501 O1628   1.623   .     S
Si1501 O1640   1.624   .     S
Si1501 O1641   1.626   .     S
Si1502 O1629   1.623   .     S
Si1502 O1639   1.630   .     S
Si1502 O1710   1.628   .     S
Si1502 O1745   1.620   .     S
Si1503 O1629   1.617   .     S
Si1503 O1630   1.623   .     S
Si1503 O1634   1.628   .     S
Si1503 O1635   1.621   .     S
Si1504 O1618   1.622   .     S
Si1504 O1631   1.635   .     S
Si1504 O1747   1.625   .     S
Si1504 O3388   1.624   .     S
Si1505 O1615   1.624   .     S
Si1505 O1631   1.632   .     S
Si1505 O1748   1.625   .     S
Si1505 O3390   1.622   .     S
Si1506 O1632   1.626   .     S
Si1506 O1633   1.629   .     S
Si1506 O1636   1.622   .     S
Si1506 O1644   1.625   .     S
Si1507 O1633   1.630   .     S
Si1507 O1634   1.625   .     S
Si1507 O1642   1.627   .     S
Si1507 O1746   1.621   .     S
Si1508 O1599   1.627   .     S
Si1508 O1645   1.620   .     S
Si1508 O1659   1.627   .     S
Si1508 O1660   1.623   .     S
Si1509 O1645   1.624   .     S
Si1509 O1646   1.621   .     S
Si1509 O1650   1.619   .     S
Si1509 O1657   1.624   .     S
Si1510 O1646   1.623   .     S
Si1510 O1647   1.623   .     S
Si1510 O1685   1.624   .     S
Si1510 O1686   1.624   .     S
Si1511 O1647   1.622   .     S
Si1511 O1648   1.620   .     S
Si1511 O1682   1.624   .     S
Si1511 O1683   1.622   .     S
Si1512 O1648   1.625   .     S
Si1512 O1649   1.624   .     S
Si1512 O1658   1.630   .     S
Si1512 O493    1.618   1_655 S
Si1513 O1649   1.621   .     S
Si1513 O1650   1.623   .     S
Si1513 O1662   1.624   .     S
Si1513 O1663   1.625   .     S
Si1514 O1600   1.628   .     S
Si1514 O1651   1.624   .     S
Si1514 O1661   1.625   .     S
Si1514 O1453   1.619   1_565 S
Si1515 O1651   1.622   .     S
Si1515 O1652   1.620   .     S
Si1515 O1656   1.625   .     S
Si1515 O1657   1.623   .     S
Si1516 O1652   1.625   .     S
Si1516 O1653   1.631   .     S
Si1516 O1684   1.621   .     S
Si1516 O1455   1.623   1_565 S
Si1517 O1653   1.632   .     S
Si1517 O1654   1.621   .     S
Si1517 O1681   1.623   .     S
Si1517 O1456   1.625   1_565 S
Si1518 O1654   1.624   .     S
Si1518 O1655   1.627   .     S
Si1518 O1658   1.625   .     S
Si1518 O494    1.626   1_655 S
Si1519 O1655   1.627   .     S
Si1519 O1656   1.628   .     S
Si1519 O1664   1.627   .     S
Si1519 O1454   1.623   1_565 S
Si1520 O1577   1.625   .     S
Si1520 O1667   1.620   .     S
Si1520 O1681   1.627   .     S
Si1520 O1682   1.626   .     S
Si1521 O1667   1.619   .     S
Si1521 O1668   1.625   .     S
Si1521 O1672   1.623   .     S
Si1521 O1679   1.623   .     S
Si1522 O1663   1.623   .     S
Si1522 O1664   1.626   .     S
Si1522 O1669   1.624   .     S
Si1522 O3426   1.623   .     S
Si1523 O1660   1.623   .     S
Si1523 O1661   1.622   .     S
Si1523 O1669   1.619   .     S
Si1523 O3428   1.621   .     S
Si1524 O1671   1.621   .     S
Si1524 O1672   1.624   .     S
Si1524 O1684   1.623   .     S
Si1524 O1685   1.625   .     S
Si1525 O1578   1.625   .     S
Si1525 O1673   1.624   .     S
Si1525 O1683   1.629   .     S
Si1525 O1745   1.621   .     S
Si1526 O1673   1.618   .     S
Si1526 O1674   1.619   .     S
Si1526 O1678   1.628   .     S
Si1526 O1679   1.623   .     S
Si1527 O1662   1.622   .     S
Si1527 O1675   1.635   .     S
Si1527 O1747   1.623   .     S
Si1527 O3432   1.621   .     S
Si1528 O1659   1.625   .     S
Si1528 O1675   1.630   .     S
Si1528 O1748   1.624   .     S
Si1528 O3434   1.622   .     S
Si1529 O1677   1.626   .     S
Si1529 O1678   1.628   .     S
Si1529 O1686   1.623   .     S
Si1529 O1746   1.623   .     S
Si1530 O1643   1.621   .     S
Si1530 O1689   1.627   .     S
Si1530 O1703   1.626   .     S
Si1530 O1704   1.621   .     S
Si1531 O1689   1.629   .     S
Si1531 O1690   1.622   .     S
Si1531 O1694   1.626   .     S
Si1531 O1701   1.625   .     S
Si1532 O1690   1.624   .     S
Si1532 O1691   1.623   .     S
Si1532 O1729   1.618   .     S
Si1532 O1730   1.628   .     S
Si1533 O1691   1.621   .     S
Si1533 O1692   1.621   .     S
Si1533 O1726   1.621   .     S
Si1533 O1727   1.627   .     S
Si1534 O1692   1.627   .     S
Si1534 O1693   1.624   .     S
Si1534 O1702   1.626   .     S
Si1535 O1693   1.623   .     S
Si1535 O1694   1.626   .     S
Si1535 O1706   1.625   .     S
Si1535 O1707   1.620   .     S
Si1536 O1644   1.633   .     S
Si1536 O1695   1.623   .     S
Si1536 O1705   1.626   .     S
Si1536 O1733   1.623   .     S
Si1537 O1695   1.627   .     S
Si1537 O1696   1.608   .     S
Si1537 O1700   1.627   .     S
Si1537 O1701   1.626   .     S
Si1538 O1696   1.631   .     S
Si1538 O1697   1.639   .     S
Si1538 O1728   1.629   .     S
Si1538 O1735   1.596   .     S
Si1539 O1697   1.625   .     S
Si1539 O1698   1.629   .     S
Si1539 O1725   1.629   .     S
Si1539 O1736   1.621   .     S
Si1540 O1698   1.621   .     S
Si1540 O1699   1.628   .     S
Si1540 O1702   1.627   .     S
Si1541 O1699   1.629   .     S
Si1541 O1700   1.628   .     S
Si1541 O1708   1.628   .     S
Si1541 O1734   1.623   .     S
Si1542 O1621   1.624   .     S
Si1542 O1711   1.625   .     S
Si1542 O1725   1.624   .     S
Si1542 O1726   1.625   .     S
Si1543 O1711   1.622   .     S
Si1543 O1712   1.625   .     S
Si1543 O1716   1.623   .     S
Si1543 O1723   1.627   .     S
Si1544 O1707   1.620   .     S
Si1544 O1708   1.625   .     S
Si1544 O5228   1.624   1_554 S
Si1544 O5229   1.623   1_554 S
Si1545 O1704   1.619   .     S
Si1545 O1705   1.623   .     S
Si1545 O5229   1.618   1_554 S
Si1545 O5230   1.619   1_554 S
Si1546 O1714   1.622   .     S
Si1546 O1715   1.618   .     S
Si1546 O1724   1.627   .     S
Si1546 O1731   1.628   .     S
Si1547 O1715   1.625   .     S
Si1547 O1716   1.628   .     S
Si1547 O1728   1.614   .     S
Si1547 O1729   1.624   .     S
Si1548 O1622   1.629   .     S
Si1548 O1717   1.624   .     S
Si1548 O1727   1.629   .     S
Si1548 O1737   1.623   .     S
Si1549 O1717   1.621   .     S
Si1549 O1718   1.619   .     S
Si1549 O1722   1.628   .     S
Si1549 O1723   1.622   .     S
Si1550 O1706   1.621   .     S
Si1550 O1719   1.634   .     S
Si1550 O1739   1.620   .     S
Si1550 O5234   1.622   1_554 S
Si1551 O1703   1.621   .     S
Si1551 O1719   1.631   .     S
Si1551 O1740   1.628   .     S
Si1551 O5236   1.622   1_554 S
Si1552 O1720   1.625   .     S
Si1552 O1721   1.624   .     S
Si1552 O1724   1.623   .     S
Si1552 O1732   1.627   .     S
Si1553 O1721   1.627   .     S
Si1553 O1722   1.630   .     S
Si1553 O1730   1.624   .     S
Si1553 O1738   1.626   .     S
Si1554 O1670   1.629   .     S
Si1554 O1671   1.621   .     S
Si1554 O1680   1.628   .     S
Si1554 O1687   1.621   .     S
Si1555 O1676   1.624   .     S
Si1555 O1677   1.625   .     S
Si1555 O1680   1.624   .     S
Si1555 O1688   1.626   .     S
Al1556 O1564   1.722   .     S
Al1556 O1565   1.721   .     S
Al1556 O1596   1.890   .     S
Al1556 O1735   1.711   .     S
O1577  Si293   1.627   1_655 S
O1578  Si298   1.627   1_655 S
O1580  Si3232  1.625   .     S
O1582  Si3233  1.627   .     S
O1586  Si3238  1.620   .     S
O1588  Si3239  1.627   .     S
O1596  H1749   0.999   .     S
O1624  Si5014  1.622   1_554 S
O1626  Si5015  1.618   1_554 S
O1630  Si5020  1.624   1_554 S
O1632  Si5021  1.622   1_554 S
O1668  Si5038  1.623   1_554 S
O1670  Si5039  1.621   1_554 S
O1674  Si5043  1.621   1_554 S
O1676  Si5044  1.622   1_554 S
O1709  Si362   1.626   1_655 S
O1710  Si368   1.629   1_655 S
O1712  Si3302  1.624   .     S
O1713  Si3302  1.623   .     S
O1713  Si3303  1.618   .     S
O1714  Si3303  1.619   .     S
O1718  Si3308  1.622   .     S
O1720  Si3309  1.622   .     S
H1750  C1756   1.089   .     S
H1751  C1757   1.087   .     S
H1752  C1754   1.090   .     S
H1753  C1755   1.088   .     S
C1754  C1755   1.373   .     D
C1754  C1756   1.429   .     S
C1755  S1758   1.723   .     S
C1756  C1757   1.372   .     D
C1757  S1758   1.722   .     S
Si1759 O1855   1.625   .     S
Si1759 O1869   1.629   .     S
Si1759 O1870   1.623   .     S
Si1759 O1985   1.620   .     S
Si1760 O1855   1.629   .     S
Si1760 O1856   1.628   .     S
Si1760 O1860   1.625   .     S
Si1760 O1867   1.624   .     S
Si1761 O1856   1.622   .     S
Si1761 O1857   1.615   .     S
Si1761 O1895   1.635   .     S
Si1761 O1896   1.625   .     S
Si1762 O1857   1.622   .     S
Si1762 O1858   1.615   .     S
Si1762 O1892   1.620   .     S
Si1762 O1893   1.623   .     S
Si1763 O1858   1.622   .     S
Si1763 O1859   1.624   .     S
Si1763 O1868   1.622   .     S
Si1763 O3047   1.627   1_455 S
Si1764 O1859   1.621   .     S
Si1764 O1860   1.626   .     S
Si1764 O1872   1.623   .     S
Si1764 O1873   1.622   .     S
Si1765 O1861   1.615   .     S
Si1765 O1871   1.628   .     S
Si1765 O1986   1.633   .     S
Si1765 O2031   1.622   .     S
Si1766 O1861   1.630   .     S
Si1766 O1862   1.595   .     S
Si1766 O1866   1.635   .     S
Si1766 O1867   1.639   .     S
Si1767 O1863   1.609   .     S
Si1767 O1864   1.631   .     S
Si1767 O1891   1.637   .     S
Si1767 O2034   1.634   .     S
Si1768 O1864   1.615   .     S
Si1768 O1865   1.626   .     S
Si1768 O1868   1.625   .     S
Si1768 O3048   1.627   1_455 S
Si1769 O1865   1.627   .     S
Si1769 O1866   1.624   .     S
Si1769 O1874   1.628   .     S
Si1769 O2032   1.622   .     S
Si1770 O1877   1.627   .     S
Si1770 O1891   1.620   .     S
Si1770 O1892   1.628   .     S
Si1770 O1963   1.622   .     S
Si1771 O1877   1.614   .     S
Si1771 O1878   1.617   .     S
Si1771 O1882   1.640   .     S
Si1771 O1889   1.620   .     S
Si1772 O1873   1.619   .     S
Si1772 O1874   1.620   .     S
Si1772 O1879   1.621   .     S
Si1773 O1870   1.619   .     S
Si1773 O1871   1.621   .     S
Si1773 O1879   1.616   .     S
Si1774 O1880   1.619   .     S
Si1774 O1881   1.631   .     S
Si1774 O1890   1.619   .     S
Si1774 O1897   1.622   .     S
Si1775 O1881   1.611   .     S
Si1775 O1882   1.607   .     S
Si1775 O1894   1.700   .     S
Si1775 O1895   1.602   .     S
Si1776 O1883   1.622   .     S
Si1776 O1893   1.624   .     S
Si1776 O1964   1.631   .     S
Si1776 O2323   1.623   .     S
Si1777 O1883   1.616   .     S
Si1777 O1884   1.614   .     S
Si1777 O1888   1.625   .     S
Si1777 O1889   1.622   .     S
Si1778 O1872   1.619   .     S
Si1778 O1885   1.633   .     S
Si1778 O2325   1.618   .     S
Si1779 O1869   1.622   .     S
Si1779 O1885   1.632   .     S
Si1779 O2326   1.623   .     S
Si1780 O1886   1.622   .     S
Si1780 O1887   1.623   .     S
Si1780 O1890   1.628   .     S
Si1780 O1898   1.624   .     S
Si1781 O1887   1.628   .     S
Si1781 O1888   1.627   .     S
Si1781 O1896   1.627   .     S
Si1781 O2324   1.621   .     S
Si1782 O1899   1.621   .     S
Si1782 O1913   1.627   .     S
Si1782 O1914   1.626   .     S
Si1782 O2029   1.623   .     S
Si1783 O1899   1.620   .     S
Si1783 O1900   1.627   .     S
Si1783 O1904   1.618   .     S
Si1783 O1911   1.625   .     S
Si1784 O1900   1.625   .     S
Si1784 O1901   1.624   .     S
Si1784 O1939   1.624   .     S
Si1784 O1940   1.627   .     S
Si1785 O1901   1.624   .     S
Si1785 O1902   1.620   .     S
Si1785 O1936   1.624   .     S
Si1785 O1937   1.624   .     S
Si1786 O1902   1.629   .     S
Si1786 O1903   1.625   .     S
Si1786 O1912   1.628   .     S
Si1786 O2505   1.619   .     S
Si1787 O1903   1.623   .     S
Si1787 O1904   1.622   .     S
Si1787 O1916   1.624   .     S
Si1787 O1917   1.627   .     S
Si1788 O1905   1.621   .     S
Si1788 O1915   1.624   .     S
Si1788 O2030   1.628   .     S
Si1788 O2039   1.622   .     S
Si1789 O1905   1.618   .     S
Si1789 O1906   1.620   .     S
Si1789 O1910   1.625   .     S
Si1789 O1911   1.624   .     S
Si1790 O1906   1.625   .     S
Si1790 O1907   1.632   .     S
Si1790 O1938   1.621   .     S
Si1790 O2041   1.622   .     S
Si1791 O1907   1.633   .     S
Si1791 O1908   1.621   .     S
Si1791 O1935   1.622   .     S
Si1791 O2042   1.625   .     S
Si1792 O1908   1.624   .     S
Si1792 O1909   1.629   .     S
Si1792 O1912   1.623   .     S
Si1792 O2506   1.624   .     S
Si1793 O1909   1.628   .     S
Si1793 O1910   1.628   .     S
Si1793 O1918   1.627   .     S
Si1793 O2040   1.625   .     S
Si1794 O1921   1.621   .     S
Si1794 O1935   1.626   .     S
Si1794 O1936   1.627   .     S
Si1794 O2007   1.624   .     S
Si1795 O1921   1.620   .     S
Si1795 O1922   1.624   .     S
Si1795 O1926   1.622   .     S
Si1795 O1933   1.622   .     S
Si1796 O1917   1.626   .     S
Si1796 O1918   1.627   .     S
Si1796 O1923   1.625   .     S
Si1796 O3680   1.622   .     S
Si1797 O1914   1.624   .     S
Si1797 O1915   1.622   .     S
Si1797 O1923   1.620   .     S
Si1797 O3682   1.618   .     S
Si1798 O1924   1.625   .     S
Si1798 O1925   1.622   .     S
Si1798 O1934   1.627   .     S
Si1798 O1941   1.621   .     S
Si1799 O1925   1.622   .     S
Si1799 O1926   1.623   .     S
Si1799 O1938   1.624   .     S
Si1799 O1939   1.626   .     S
Si1800 O1927   1.623   .     S
Si1800 O1937   1.630   .     S
Si1800 O2008   1.628   .     S
Si1800 O2043   1.620   .     S
Si1801 O1927   1.617   .     S
Si1801 O1928   1.623   .     S
Si1801 O1932   1.628   .     S
Si1801 O1933   1.621   .     S
Si1802 O1916   1.622   .     S
Si1802 O1929   1.635   .     S
Si1802 O2045   1.625   .     S
Si1802 O3686   1.624   .     S
Si1803 O1913   1.624   .     S
Si1803 O1929   1.632   .     S
Si1803 O2046   1.625   .     S
Si1803 O3688   1.622   .     S
Si1804 O1930   1.626   .     S
Si1804 O1931   1.629   .     S
Si1804 O1934   1.622   .     S
Si1804 O1942   1.625   .     S
Si1805 O1931   1.630   .     S
Si1805 O1932   1.625   .     S
Si1805 O1940   1.627   .     S
Si1805 O2044   1.621   .     S
Si1806 O1897   1.627   .     S
Si1806 O1943   1.620   .     S
Si1806 O1957   1.627   .     S
Si1806 O1958   1.623   .     S
Si1807 O1943   1.624   .     S
Si1807 O1944   1.621   .     S
Si1807 O1948   1.619   .     S
Si1807 O1955   1.624   .     S
Si1808 O1944   1.623   .     S
Si1808 O1945   1.623   .     S
Si1808 O1983   1.624   .     S
Si1808 O1984   1.624   .     S
Si1809 O1945   1.622   .     S
Si1809 O1946   1.620   .     S
Si1809 O1980   1.624   .     S
Si1809 O1981   1.622   .     S
Si1810 O1946   1.625   .     S
Si1810 O1947   1.624   .     S
Si1810 O1956   1.630   .     S
Si1810 O2549   1.618   .     S
Si1811 O1947   1.621   .     S
Si1811 O1948   1.623   .     S
Si1811 O1960   1.624   .     S
Si1811 O1961   1.625   .     S
Si1812 O1898   1.628   .     S
Si1812 O1949   1.624   .     S
Si1812 O1959   1.625   .     S
Si1812 O2327   1.619   .     S
Si1813 O1949   1.622   .     S
Si1813 O1950   1.620   .     S
Si1813 O1954   1.625   .     S
Si1813 O1955   1.623   .     S
Si1814 O1950   1.625   .     S
Si1814 O1951   1.631   .     S
Si1814 O1982   1.621   .     S
Si1814 O2329   1.623   .     S
Si1815 O1951   1.632   .     S
Si1815 O1952   1.621   .     S
Si1815 O1979   1.623   .     S
Si1815 O2330   1.625   .     S
Si1816 O1952   1.624   .     S
Si1816 O1953   1.627   .     S
Si1816 O1956   1.625   .     S
Si1816 O2550   1.626   .     S
Si1817 O1953   1.627   .     S
Si1817 O1954   1.628   .     S
Si1817 O1962   1.627   .     S
Si1817 O2328   1.623   .     S
Si1818 O1875   1.625   .     S
Si1818 O1965   1.620   .     S
Si1818 O1979   1.627   .     S
Si1818 O1980   1.626   .     S
Si1819 O1965   1.619   .     S
Si1819 O1966   1.625   .     S
Si1819 O1970   1.623   .     S
Si1819 O1977   1.623   .     S
Si1820 O1961   1.623   .     S
Si1820 O1962   1.626   .     S
Si1820 O1967   1.624   .     S
Si1820 O3724   1.623   .     S
Si1821 O1958   1.623   .     S
Si1821 O1959   1.622   .     S
Si1821 O1967   1.619   .     S
Si1821 O3726   1.621   .     S
Si1822 O1969   1.621   .     S
Si1822 O1970   1.624   .     S
Si1822 O1982   1.623   .     S
Si1822 O1983   1.625   .     S
Si1823 O1876   1.625   .     S
Si1823 O1971   1.624   .     S
Si1823 O1981   1.629   .     S
Si1823 O2043   1.621   .     S
Si1824 O1971   1.618   .     S
Si1824 O1972   1.619   .     S
Si1824 O1976   1.628   .     S
Si1824 O1977   1.623   .     S
Si1825 O1960   1.622   .     S
Si1825 O1973   1.635   .     S
Si1825 O2045   1.623   .     S
Si1825 O3730   1.621   .     S
Si1826 O1957   1.625   .     S
Si1826 O1973   1.630   .     S
Si1826 O2046   1.624   .     S
Si1826 O3732   1.622   .     S
Si1827 O1975   1.626   .     S
Si1827 O1976   1.628   .     S
Si1827 O1984   1.623   .     S
Si1827 O2044   1.623   .     S
Si1828 O1941   1.621   .     S
Si1828 O1987   1.627   .     S
Si1828 O2001   1.626   .     S
Si1828 O2002   1.621   .     S
Si1829 O1987   1.629   .     S
Si1829 O1988   1.622   .     S
Si1829 O1992   1.626   .     S
Si1829 O1999   1.625   .     S
Si1830 O1988   1.624   .     S
Si1830 O1989   1.623   .     S
Si1830 O2027   1.618   .     S
Si1830 O2028   1.628   .     S
Si1831 O1989   1.621   .     S
Si1831 O1990   1.621   .     S
Si1831 O2024   1.621   .     S
Si1831 O2025   1.627   .     S
Si1832 O1990   1.627   .     S
Si1832 O1991   1.624   .     S
Si1832 O2000   1.626   .     S
Si1832 O3179   1.626   1_455 S
Si1833 O1991   1.623   .     S
Si1833 O1992   1.626   .     S
Si1833 O2004   1.625   .     S
Si1833 O2005   1.620   .     S
Si1834 O1942   1.633   .     S
Si1834 O1993   1.623   .     S
Si1834 O2003   1.626   .     S
Si1834 O2031   1.623   .     S
Si1835 O1993   1.627   .     S
Si1835 O1994   1.608   .     S
Si1835 O1998   1.627   .     S
Si1835 O1999   1.626   .     S
Si1836 O1994   1.631   .     S
Si1836 O1995   1.639   .     S
Si1836 O2026   1.629   .     S
Si1836 O2033   1.596   .     S
Si1837 O1995   1.625   .     S
Si1837 O1996   1.629   .     S
Si1837 O2023   1.629   .     S
Si1837 O2034   1.621   .     S
Si1838 O1996   1.621   .     S
Si1838 O1997   1.628   .     S
Si1838 O2000   1.627   .     S
Si1838 O3180   1.629   1_455 S
Si1839 O1997   1.629   .     S
Si1839 O1998   1.628   .     S
Si1839 O2006   1.628   .     S
Si1839 O2032   1.623   .     S
Si1840 O1919   1.624   .     S
Si1840 O2009   1.625   .     S
Si1840 O2023   1.624   .     S
Si1840 O2024   1.625   .     S
Si1841 O2009   1.622   .     S
Si1841 O2010   1.625   .     S
Si1841 O2014   1.623   .     S
Si1841 O2021   1.627   .     S
Si1842 O2005   1.620   .     S
Si1842 O2006   1.625   .     S
Si1843 O2002   1.619   .     S
Si1843 O2003   1.623   .     S
Si1844 O2012   1.622   .     S
Si1844 O2013   1.618   .     S
Si1844 O2022   1.627   .     S
Si1844 O2029   1.628   .     S
Si1845 O2013   1.625   .     S
Si1845 O2014   1.628   .     S
Si1845 O2026   1.614   .     S
Si1845 O2027   1.624   .     S
Si1846 O1920   1.629   .     S
Si1846 O2015   1.624   .     S
Si1846 O2025   1.629   .     S
Si1846 O2035   1.623   .     S
Si1847 O2015   1.621   .     S
Si1847 O2016   1.619   .     S
Si1847 O2020   1.628   .     S
Si1847 O2021   1.622   .     S
Si1848 O2004   1.621   .     S
Si1848 O2017   1.634   .     S
Si1848 O2037   1.620   .     S
Si1849 O2001   1.621   .     S
Si1849 O2017   1.631   .     S
Si1849 O2038   1.627   .     S
Si1850 O2018   1.625   .     S
Si1850 O2019   1.624   .     S
Si1850 O2022   1.623   .     S
Si1850 O2030   1.627   .     S
Si1851 O2019   1.627   .     S
Si1851 O2020   1.630   .     S
Si1851 O2028   1.624   .     S
Si1851 O2036   1.626   .     S
Si1852 O1968   1.629   .     S
Si1852 O1969   1.621   .     S
Si1852 O1978   1.628   .     S
Si1852 O1985   1.621   .     S
Si1853 O1974   1.624   .     S
Si1853 O1975   1.625   .     S
Si1853 O1978   1.624   .     S
Si1853 O1986   1.626   .     S
Al1854 O1862   1.722   .     S
Al1854 O1863   1.721   .     S
Al1854 O1894   1.890   .     S
Al1854 O2033   1.711   .     S
O1875  Si2349  1.627   .     S
O1876  Si2354  1.627   .     S
O1878  Si3530  1.625   .     S
O1880  Si3531  1.627   .     S
O1884  Si3536  1.620   .     S
O1886  Si3537  1.627   .     S
O1919  Si2958  1.619   1_455 S
O1920  Si2964  1.624   1_455 S
O1963  Si2982  1.618   1_455 S
O1964  Si2988  1.626   1_455 S
O2007  Si2418  1.626   .     S
O2008  Si2424  1.629   .     S
O2010  Si3600  1.624   .     S
O2011  Si3600  1.623   .     S
O2011  Si3601  1.618   .     S
O2012  Si3601  1.619   .     S
O2016  Si3606  1.622   .     S
O2018  Si3607  1.622   .     S
O2035  Si2064  1.623   1_545 S
O2036  Si2069  1.621   1_545 S
O2037  Si2066  1.618   1_545 S
O2038  Si2067  1.624   1_545 S
O2039  Si2100  1.619   1_545 S
O2040  Si2105  1.623   1_545 S
O2041  Si2102  1.623   1_545 S
O2042  Si2103  1.625   1_545 S
Si2047 O2143   1.625   .     S
Si2047 O2157   1.629   .     S
Si2047 O2158   1.623   .     S
Si2047 O2273   1.620   .     S
Si2048 O2143   1.629   .     S
Si2048 O2144   1.628   .     S
Si2048 O2148   1.625   .     S
Si2048 O2155   1.624   .     S
Si2049 O2144   1.622   .     S
Si2049 O2145   1.615   .     S
Si2049 O2183   1.635   .     S
Si2049 O2184   1.625   .     S
Si2050 O2145   1.622   .     S
Si2050 O2146   1.615   .     S
Si2050 O2180   1.620   .     S
Si2050 O2181   1.623   .     S
Si2051 O2146   1.622   .     S
Si2051 O2147   1.624   .     S
Si2051 O2156   1.622   .     S
Si2051 O3335   1.627   1_455 S
Si2052 O2147   1.621   .     S
Si2052 O2148   1.626   .     S
Si2052 O2160   1.623   .     S
Si2052 O2161   1.622   .     S
Si2053 O2149   1.615   .     S
Si2053 O2159   1.628   .     S
Si2053 O2274   1.633   .     S
Si2053 O2319   1.622   .     S
Si2054 O2149   1.630   .     S
Si2054 O2150   1.595   .     S
Si2054 O2154   1.635   .     S
Si2054 O2155   1.639   .     S
Si2055 O2151   1.609   .     S
Si2055 O2152   1.631   .     S
Si2055 O2179   1.637   .     S
Si2055 O2322   1.634   .     S
Si2056 O2152   1.615   .     S
Si2056 O2153   1.626   .     S
Si2056 O2156   1.625   .     S
Si2056 O3336   1.627   1_455 S
Si2057 O2153   1.627   .     S
Si2057 O2154   1.624   .     S
Si2057 O2162   1.628   .     S
Si2057 O2320   1.622   .     S
Si2058 O2165   1.627   .     S
Si2058 O2179   1.620   .     S
Si2058 O2180   1.628   .     S
Si2058 O2251   1.622   .     S
Si2059 O2165   1.614   .     S
Si2059 O2166   1.617   .     S
Si2059 O2170   1.640   .     S
Si2059 O2177   1.620   .     S
Si2060 O2161   1.619   .     S
Si2060 O2162   1.620   .     S
Si2060 O2167   1.621   .     S
Si2061 O2158   1.619   .     S
Si2061 O2159   1.621   .     S
Si2061 O2167   1.616   .     S
Si2062 O2168   1.619   .     S
Si2062 O2169   1.631   .     S
Si2062 O2178   1.619   .     S
Si2062 O2185   1.622   .     S
Si2063 O2169   1.611   .     S
Si2063 O2170   1.607   .     S
Si2063 O2182   1.700   .     S
Si2063 O2183   1.602   .     S
Si2064 O2171   1.622   .     S
Si2064 O2181   1.624   .     S
Si2064 O2252   1.631   .     S
Si2064 O2035   1.623   1_565 S
Si2065 O2171   1.616   .     S
Si2065 O2172   1.614   .     S
Si2065 O2176   1.625   .     S
Si2065 O2177   1.622   .     S
Si2066 O2160   1.619   .     S
Si2066 O2173   1.633   .     S
Si2066 O2037   1.618   1_565 S
Si2067 O2157   1.622   .     S
Si2067 O2173   1.632   .     S
Si2067 O2038   1.624   1_565 S
Si2068 O2174   1.622   .     S
Si2068 O2175   1.623   .     S
Si2068 O2178   1.628   .     S
Si2068 O2186   1.624   .     S
Si2069 O2175   1.628   .     S
Si2069 O2176   1.627   .     S
Si2069 O2184   1.627   .     S
Si2069 O2036   1.621   1_565 S
Si2070 O2187   1.621   .     S
Si2070 O2201   1.627   .     S
Si2070 O2202   1.626   .     S
Si2070 O2317   1.623   .     S
Si2071 O2187   1.620   .     S
Si2071 O2188   1.627   .     S
Si2071 O2192   1.618   .     S
Si2071 O2199   1.625   .     S
Si2072 O2188   1.625   .     S
Si2072 O2189   1.624   .     S
Si2072 O2227   1.624   .     S
Si2072 O2228   1.627   .     S
Si2073 O2189   1.624   .     S
Si2073 O2190   1.620   .     S
Si2073 O2224   1.624   .     S
Si2073 O2225   1.624   .     S
Si2074 O2190   1.629   .     S
Si2074 O2191   1.625   .     S
Si2074 O2200   1.628   .     S
Si2074 O2793   1.619   .     S
Si2075 O2191   1.623   .     S
Si2075 O2192   1.622   .     S
Si2075 O2204   1.624   .     S
Si2075 O2205   1.627   .     S
Si2076 O2193   1.621   .     S
Si2076 O2203   1.624   .     S
Si2076 O2318   1.628   .     S
Si2076 O2327   1.622   .     S
Si2077 O2193   1.618   .     S
Si2077 O2194   1.620   .     S
Si2077 O2198   1.625   .     S
Si2077 O2199   1.624   .     S
Si2078 O2194   1.625   .     S
Si2078 O2195   1.632   .     S
Si2078 O2226   1.621   .     S
Si2078 O2329   1.622   .     S
Si2079 O2195   1.633   .     S
Si2079 O2196   1.621   .     S
Si2079 O2223   1.622   .     S
Si2079 O2330   1.625   .     S
Si2080 O2196   1.624   .     S
Si2080 O2197   1.629   .     S
Si2080 O2200   1.623   .     S
Si2080 O2794   1.624   .     S
Si2081 O2197   1.628   .     S
Si2081 O2198   1.628   .     S
Si2081 O2206   1.627   .     S
Si2081 O2328   1.625   .     S
Si2082 O2209   1.621   .     S
Si2082 O2223   1.626   .     S
Si2082 O2224   1.627   .     S
Si2082 O2295   1.624   .     S
Si2083 O2209   1.620   .     S
Si2083 O2210   1.624   .     S
Si2083 O2214   1.622   .     S
Si2083 O2221   1.622   .     S
Si2084 O2205   1.626   .     S
Si2084 O2206   1.627   .     S
Si2084 O2211   1.625   .     S
Si2084 O3968   1.622   .     S
Si2085 O2202   1.624   .     S
Si2085 O2203   1.622   .     S
Si2085 O2211   1.620   .     S
Si2085 O3970   1.618   .     S
Si2086 O2212   1.625   .     S
Si2086 O2213   1.622   .     S
Si2086 O2222   1.627   .     S
Si2086 O2229   1.621   .     S
Si2087 O2213   1.622   .     S
Si2087 O2214   1.623   .     S
Si2087 O2226   1.624   .     S
Si2087 O2227   1.626   .     S
Si2088 O2215   1.623   .     S
Si2088 O2225   1.630   .     S
Si2088 O2296   1.628   .     S
Si2088 O2331   1.620   .     S
Si2089 O2215   1.617   .     S
Si2089 O2216   1.623   .     S
Si2089 O2220   1.628   .     S
Si2089 O2221   1.621   .     S
Si2090 O2204   1.622   .     S
Si2090 O2217   1.635   .     S
Si2090 O2333   1.625   .     S
Si2090 O3974   1.624   .     S
Si2091 O2201   1.624   .     S
Si2091 O2217   1.632   .     S
Si2091 O2334   1.625   .     S
Si2091 O3976   1.622   .     S
Si2092 O2218   1.626   .     S
Si2092 O2219   1.629   .     S
Si2092 O2222   1.622   .     S
Si2092 O2230   1.625   .     S
Si2093 O2219   1.630   .     S
Si2093 O2220   1.625   .     S
Si2093 O2228   1.627   .     S
Si2093 O2332   1.621   .     S
Si2094 O2185   1.627   .     S
Si2094 O2231   1.620   .     S
Si2094 O2245   1.627   .     S
Si2094 O2246   1.623   .     S
Si2095 O2231   1.624   .     S
Si2095 O2232   1.621   .     S
Si2095 O2236   1.619   .     S
Si2095 O2243   1.624   .     S
Si2096 O2232   1.623   .     S
Si2096 O2233   1.623   .     S
Si2096 O2271   1.624   .     S
Si2096 O2272   1.624   .     S
Si2097 O2233   1.622   .     S
Si2097 O2234   1.620   .     S
Si2097 O2268   1.624   .     S
Si2097 O2269   1.622   .     S
Si2098 O2234   1.625   .     S
Si2098 O2235   1.624   .     S
Si2098 O2244   1.630   .     S
Si2098 O2837   1.618   .     S
Si2099 O2235   1.621   .     S
Si2099 O2236   1.623   .     S
Si2099 O2248   1.624   .     S
Si2099 O2249   1.625   .     S
Si2100 O2186   1.628   .     S
Si2100 O2237   1.624   .     S
Si2100 O2247   1.625   .     S
Si2100 O2039   1.619   1_565 S
Si2101 O2237   1.622   .     S
Si2101 O2238   1.620   .     S
Si2101 O2242   1.625   .     S
Si2101 O2243   1.623   .     S
Si2102 O2238   1.625   .     S
Si2102 O2239   1.631   .     S
Si2102 O2270   1.621   .     S
Si2102 O2041   1.623   1_565 S
Si2103 O2239   1.632   .     S
Si2103 O2240   1.621   .     S
Si2103 O2267   1.623   .     S
Si2103 O2042   1.625   1_565 S
Si2104 O2240   1.624   .     S
Si2104 O2241   1.627   .     S
Si2104 O2244   1.625   .     S
Si2104 O2838   1.626   .     S
Si2105 O2241   1.627   .     S
Si2105 O2242   1.628   .     S
Si2105 O2250   1.627   .     S
Si2105 O2040   1.623   1_565 S
Si2106 O2163   1.625   .     S
Si2106 O2253   1.620   .     S
Si2106 O2267   1.627   .     S
Si2106 O2268   1.626   .     S
Si2107 O2253   1.619   .     S
Si2107 O2254   1.625   .     S
Si2107 O2258   1.623   .     S
Si2107 O2265   1.623   .     S
Si2108 O2249   1.623   .     S
Si2108 O2250   1.626   .     S
Si2108 O2255   1.624   .     S
Si2108 O4012   1.623   .     S
Si2109 O2246   1.623   .     S
Si2109 O2247   1.622   .     S
Si2109 O2255   1.619   .     S
Si2109 O4014   1.621   .     S
Si2110 O2257   1.621   .     S
Si2110 O2258   1.624   .     S
Si2110 O2270   1.623   .     S
Si2110 O2271   1.625   .     S
Si2111 O2164   1.625   .     S
Si2111 O2259   1.624   .     S
Si2111 O2269   1.629   .     S
Si2111 O2331   1.621   .     S
Si2112 O2259   1.618   .     S
Si2112 O2260   1.619   .     S
Si2112 O2264   1.628   .     S
Si2112 O2265   1.623   .     S
Si2113 O2248   1.622   .     S
Si2113 O2261   1.635   .     S
Si2113 O2333   1.623   .     S
Si2113 O4018   1.621   .     S
Si2114 O2245   1.625   .     S
Si2114 O2261   1.630   .     S
Si2114 O2334   1.624   .     S
Si2114 O4020   1.622   .     S
Si2115 O2263   1.626   .     S
Si2115 O2264   1.628   .     S
Si2115 O2272   1.623   .     S
Si2115 O2332   1.623   .     S
Si2116 O2229   1.621   .     S
Si2116 O2275   1.627   .     S
Si2116 O2289   1.626   .     S
Si2116 O2290   1.621   .     S
Si2117 O2275   1.629   .     S
Si2117 O2276   1.622   .     S
Si2117 O2280   1.626   .     S
Si2117 O2287   1.625   .     S
Si2118 O2276   1.624   .     S
Si2118 O2277   1.623   .     S
Si2118 O2315   1.618   .     S
Si2118 O2316   1.628   .     S
Si2119 O2277   1.621   .     S
Si2119 O2278   1.621   .     S
Si2119 O2312   1.621   .     S
Si2119 O2313   1.627   .     S
Si2120 O2278   1.627   .     S
Si2120 O2279   1.624   .     S
Si2120 O2288   1.626   .     S
Si2120 O3467   1.626   1_455 S
Si2121 O2279   1.623   .     S
Si2121 O2280   1.626   .     S
Si2121 O2292   1.625   .     S
Si2121 O2293   1.620   .     S
Si2122 O2230   1.633   .     S
Si2122 O2281   1.623   .     S
Si2122 O2291   1.626   .     S
Si2122 O2319   1.623   .     S
Si2123 O2281   1.627   .     S
Si2123 O2282   1.608   .     S
Si2123 O2286   1.627   .     S
Si2123 O2287   1.626   .     S
Si2124 O2282   1.631   .     S
Si2124 O2283   1.639   .     S
Si2124 O2314   1.629   .     S
Si2124 O2321   1.596   .     S
Si2125 O2283   1.625   .     S
Si2125 O2284   1.629   .     S
Si2125 O2311   1.629   .     S
Si2125 O2322   1.621   .     S
Si2126 O2284   1.621   .     S
Si2126 O2285   1.628   .     S
Si2126 O2288   1.627   .     S
Si2126 O3468   1.629   1_455 S
Si2127 O2285   1.629   .     S
Si2127 O2286   1.628   .     S
Si2127 O2294   1.628   .     S
Si2127 O2320   1.623   .     S
Si2128 O2207   1.624   .     S
Si2128 O2297   1.625   .     S
Si2128 O2311   1.624   .     S
Si2128 O2312   1.625   .     S
Si2129 O2297   1.622   .     S
Si2129 O2298   1.625   .     S
Si2129 O2302   1.623   .     S
Si2129 O2309   1.627   .     S
Si2130 O2293   1.620   .     S
Si2130 O2294   1.625   .     S
Si2131 O2290   1.619   .     S
Si2131 O2291   1.623   .     S
Si2132 O2300   1.622   .     S
Si2132 O2301   1.618   .     S
Si2132 O2310   1.627   .     S
Si2132 O2317   1.628   .     S
Si2133 O2301   1.625   .     S
Si2133 O2302   1.628   .     S
Si2133 O2314   1.614   .     S
Si2133 O2315   1.624   .     S
Si2134 O2208   1.629   .     S
Si2134 O2303   1.624   .     S
Si2134 O2313   1.629   .     S
Si2134 O2323   1.623   .     S
Si2135 O2303   1.621   .     S
Si2135 O2304   1.619   .     S
Si2135 O2308   1.628   .     S
Si2135 O2309   1.622   .     S
Si2136 O2292   1.621   .     S
Si2136 O2305   1.634   .     S
Si2136 O2325   1.620   .     S
Si2137 O2289   1.621   .     S
Si2137 O2305   1.631   .     S
Si2137 O2326   1.628   .     S
Si2138 O2306   1.625   .     S
Si2138 O2307   1.624   .     S
Si2138 O2310   1.623   .     S
Si2138 O2318   1.627   .     S
Si2139 O2307   1.627   .     S
Si2139 O2308   1.630   .     S
Si2139 O2316   1.624   .     S
Si2139 O2324   1.626   .     S
Si2140 O2256   1.629   .     S
Si2140 O2257   1.621   .     S
Si2140 O2266   1.628   .     S
Si2140 O2273   1.621   .     S
Si2141 O2262   1.624   .     S
Si2141 O2263   1.625   .     S
Si2141 O2266   1.624   .     S
Si2141 O2274   1.626   .     S
Al2142 O2150   1.722   .     S
Al2142 O2151   1.721   .     S
Al2142 O2182   1.890   .     S
Al2142 O2321   1.711   .     S
O2163  Si2637  1.627   .     S
O2164  Si2642  1.627   .     S
O2166  Si3818  1.625   .     S
O2168  Si3819  1.627   .     S
O2172  Si3824  1.620   .     S
O2174  Si3825  1.627   .     S
O2182  H2335   0.999   .     S
O2207  Si3246  1.619   1_455 S
O2208  Si3252  1.624   1_455 S
O2251  Si3270  1.618   1_455 S
O2252  Si3276  1.626   1_455 S
O2295  Si2706  1.626   .     S
O2296  Si2712  1.629   .     S
O2298  Si3888  1.624   .     S
O2299  Si3888  1.623   .     S
O2299  Si3889  1.618   .     S
O2300  Si3889  1.619   .     S
O2304  Si3894  1.622   .     S
O2306  Si3895  1.622   .     S
H2336  C2342   1.089   .     S
H2337  C2343   1.087   .     S
H2338  C2340   1.090   .     S
H2339  C2341   1.088   .     S
C2340  C2341   1.373   .     D
C2340  C2342   1.429   .     S
C2341  S2344   1.723   .     S
C2342  C2343   1.372   .     D
C2343  S2344   1.722   .     S
Si2345 O2441   1.625   .     S
Si2345 O2455   1.629   .     S
Si2345 O2456   1.623   .     S
Si2345 O2571   1.620   .     S
Si2346 O2441   1.629   .     S
Si2346 O2442   1.628   .     S
Si2346 O2446   1.625   .     S
Si2346 O2453   1.624   .     S
Si2347 O2442   1.622   .     S
Si2347 O2443   1.615   .     S
Si2347 O2481   1.635   .     S
Si2347 O2482   1.625   .     S
Si2348 O2443   1.622   .     S
Si2348 O2444   1.615   .     S
Si2348 O2478   1.620   .     S
Si2348 O2479   1.623   .     S
Si2349 O2444   1.622   .     S
Si2349 O2445   1.624   .     S
Si2349 O2454   1.622   .     S
Si2350 O2445   1.621   .     S
Si2350 O2446   1.626   .     S
Si2350 O2458   1.623   .     S
Si2350 O2459   1.622   .     S
Si2351 O2447   1.615   .     S
Si2351 O2457   1.628   .     S
Si2351 O2572   1.633   .     S
Si2351 O2617   1.622   .     S
Si2352 O2447   1.630   .     S
Si2352 O2448   1.595   .     S
Si2352 O2452   1.635   .     S
Si2352 O2453   1.639   .     S
Si2353 O2449   1.609   .     S
Si2353 O2450   1.631   .     S
Si2353 O2477   1.637   .     S
Si2353 O2620   1.634   .     S
Si2354 O2450   1.615   .     S
Si2354 O2451   1.626   .     S
Si2354 O2454   1.625   .     S
Si2355 O2451   1.627   .     S
Si2355 O2452   1.624   .     S
Si2355 O2460   1.628   .     S
Si2355 O2618   1.622   .     S
Si2356 O2463   1.627   .     S
Si2356 O2477   1.620   .     S
Si2356 O2478   1.628   .     S
Si2356 O2549   1.622   .     S
Si2357 O2463   1.614   .     S
Si2357 O2464   1.617   .     S
Si2357 O2468   1.640   .     S
Si2357 O2475   1.620   .     S
Si2358 O2459   1.619   .     S
Si2358 O2460   1.620   .     S
Si2358 O2465   1.621   .     S
Si2359 O2456   1.619   .     S
Si2359 O2457   1.621   .     S
Si2359 O2465   1.616   .     S
Si2360 O2466   1.619   .     S
Si2360 O2467   1.631   .     S
Si2360 O2476   1.619   .     S
Si2360 O2483   1.622   .     S
Si2361 O2467   1.611   .     S
Si2361 O2468   1.607   .     S
Si2361 O2480   1.700   .     S
Si2361 O2481   1.602   .     S
Si2362 O2469   1.622   .     S
Si2362 O2479   1.624   .     S
Si2362 O2550   1.631   .     S
Si2362 O2909   1.623   .     S
Si2363 O2469   1.616   .     S
Si2363 O2470   1.614   .     S
Si2363 O2474   1.625   .     S
Si2363 O2475   1.622   .     S
Si2364 O2458   1.619   .     S
Si2364 O2471   1.633   .     S
Si2364 O2911   1.618   .     S
Si2365 O2455   1.622   .     S
Si2365 O2471   1.632   .     S
Si2365 O2912   1.623   .     S
Si2366 O2472   1.622   .     S
Si2366 O2473   1.623   .     S
Si2366 O2476   1.628   .     S
Si2366 O2484   1.624   .     S
Si2367 O2473   1.628   .     S
Si2367 O2474   1.627   .     S
Si2367 O2482   1.627   .     S
Si2367 O2910   1.621   .     S
Si2368 O2485   1.621   .     S
Si2368 O2499   1.627   .     S
Si2368 O2500   1.626   .     S
Si2368 O2615   1.623   .     S
Si2369 O2485   1.620   .     S
Si2369 O2486   1.627   .     S
Si2369 O2490   1.618   .     S
Si2369 O2497   1.625   .     S
Si2370 O2486   1.625   .     S
Si2370 O2487   1.624   .     S
Si2370 O2525   1.624   .     S
Si2370 O2526   1.627   .     S
Si2371 O2487   1.624   .     S
Si2371 O2488   1.620   .     S
Si2371 O2522   1.624   .     S
Si2371 O2523   1.624   .     S
Si2372 O2488   1.629   .     S
Si2372 O2489   1.625   .     S
Si2372 O2498   1.628   .     S
Si2372 O3091   1.619   .     S
Si2373 O2489   1.623   .     S
Si2373 O2490   1.622   .     S
Si2373 O2502   1.624   .     S
Si2373 O2503   1.627   .     S
Si2374 O2491   1.621   .     S
Si2374 O2501   1.624   .     S
Si2374 O2616   1.628   .     S
Si2374 O2625   1.622   .     S
Si2375 O2491   1.618   .     S
Si2375 O2492   1.620   .     S
Si2375 O2496   1.625   .     S
Si2375 O2497   1.624   .     S
Si2376 O2492   1.625   .     S
Si2376 O2493   1.632   .     S
Si2376 O2524   1.621   .     S
Si2376 O2627   1.622   .     S
Si2377 O2493   1.633   .     S
Si2377 O2494   1.621   .     S
Si2377 O2521   1.622   .     S
Si2377 O2628   1.625   .     S
Si2378 O2494   1.624   .     S
Si2378 O2495   1.629   .     S
Si2378 O2498   1.623   .     S
Si2378 O3092   1.624   .     S
Si2379 O2495   1.628   .     S
Si2379 O2496   1.628   .     S
Si2379 O2504   1.627   .     S
Si2379 O2626   1.625   .     S
Si2380 O2507   1.621   .     S
Si2380 O2521   1.626   .     S
Si2380 O2522   1.627   .     S
Si2380 O2593   1.624   .     S
Si2381 O2507   1.620   .     S
Si2381 O2508   1.624   .     S
Si2381 O2512   1.622   .     S
Si2381 O2519   1.622   .     S
Si2382 O2503   1.626   .     S
Si2382 O2504   1.627   .     S
Si2382 O2509   1.625   .     S
Si2382 O4266   1.622   .     S
Si2383 O2500   1.624   .     S
Si2383 O2501   1.622   .     S
Si2383 O2509   1.620   .     S
Si2383 O4268   1.618   .     S
Si2384 O2510   1.625   .     S
Si2384 O2511   1.622   .     S
Si2384 O2520   1.627   .     S
Si2384 O2527   1.621   .     S
Si2385 O2511   1.622   .     S
Si2385 O2512   1.623   .     S
Si2385 O2524   1.624   .     S
Si2385 O2525   1.626   .     S
Si2386 O2513   1.623   .     S
Si2386 O2523   1.630   .     S
Si2386 O2594   1.628   .     S
Si2386 O2629   1.620   .     S
Si2387 O2513   1.617   .     S
Si2387 O2514   1.623   .     S
Si2387 O2518   1.628   .     S
Si2387 O2519   1.621   .     S
Si2388 O2502   1.622   .     S
Si2388 O2515   1.635   .     S
Si2388 O2631   1.625   .     S
Si2388 O4272   1.624   .     S
Si2389 O2499   1.624   .     S
Si2389 O2515   1.632   .     S
Si2389 O2632   1.625   .     S
Si2389 O4274   1.622   .     S
Si2390 O2516   1.626   .     S
Si2390 O2517   1.629   .     S
Si2390 O2520   1.622   .     S
Si2390 O2528   1.625   .     S
Si2391 O2517   1.630   .     S
Si2391 O2518   1.625   .     S
Si2391 O2526   1.627   .     S
Si2391 O2630   1.621   .     S
Si2392 O2483   1.627   .     S
Si2392 O2529   1.620   .     S
Si2392 O2543   1.627   .     S
Si2392 O2544   1.623   .     S
Si2393 O2529   1.624   .     S
Si2393 O2530   1.621   .     S
Si2393 O2534   1.619   .     S
Si2393 O2541   1.624   .     S
Si2394 O2530   1.623   .     S
Si2394 O2531   1.623   .     S
Si2394 O2569   1.624   .     S
Si2394 O2570   1.624   .     S
Si2395 O2531   1.622   .     S
Si2395 O2532   1.620   .     S
Si2395 O2566   1.624   .     S
Si2395 O2567   1.622   .     S
Si2396 O2532   1.625   .     S
Si2396 O2533   1.624   .     S
Si2396 O2542   1.630   .     S
Si2396 O3135   1.618   .     S
Si2397 O2533   1.621   .     S
Si2397 O2534   1.623   .     S
Si2397 O2546   1.624   .     S
Si2397 O2547   1.625   .     S
Si2398 O2484   1.628   .     S
Si2398 O2535   1.624   .     S
Si2398 O2545   1.625   .     S
Si2398 O2913   1.619   .     S
Si2399 O2535   1.622   .     S
Si2399 O2536   1.620   .     S
Si2399 O2540   1.625   .     S
Si2399 O2541   1.623   .     S
Si2400 O2536   1.625   .     S
Si2400 O2537   1.631   .     S
Si2400 O2568   1.621   .     S
Si2400 O2915   1.623   .     S
Si2401 O2537   1.632   .     S
Si2401 O2538   1.621   .     S
Si2401 O2565   1.623   .     S
Si2401 O2916   1.625   .     S
Si2402 O2538   1.624   .     S
Si2402 O2539   1.627   .     S
Si2402 O2542   1.625   .     S
Si2402 O3136   1.626   .     S
Si2403 O2539   1.627   .     S
Si2403 O2540   1.628   .     S
Si2403 O2548   1.627   .     S
Si2403 O2914   1.623   .     S
Si2404 O2461   1.625   .     S
Si2404 O2551   1.620   .     S
Si2404 O2565   1.627   .     S
Si2404 O2566   1.626   .     S
Si2405 O2551   1.619   .     S
Si2405 O2552   1.625   .     S
Si2405 O2556   1.623   .     S
Si2405 O2563   1.623   .     S
Si2406 O2547   1.623   .     S
Si2406 O2548   1.626   .     S
Si2406 O2553   1.624   .     S
Si2406 O4310   1.623   .     S
Si2407 O2544   1.623   .     S
Si2407 O2545   1.622   .     S
Si2407 O2553   1.619   .     S
Si2407 O4312   1.621   .     S
Si2408 O2555   1.621   .     S
Si2408 O2556   1.624   .     S
Si2408 O2568   1.623   .     S
Si2408 O2569   1.625   .     S
Si2409 O2462   1.625   .     S
Si2409 O2557   1.624   .     S
Si2409 O2567   1.629   .     S
Si2409 O2629   1.621   .     S
Si2410 O2557   1.618   .     S
Si2410 O2558   1.619   .     S
Si2410 O2562   1.628   .     S
Si2410 O2563   1.623   .     S
Si2411 O2546   1.622   .     S
Si2411 O2559   1.635   .     S
Si2411 O2631   1.623   .     S
Si2411 O4316   1.621   .     S
Si2412 O2543   1.625   .     S
Si2412 O2559   1.630   .     S
Si2412 O2632   1.624   .     S
Si2412 O4318   1.622   .     S
Si2413 O2561   1.626   .     S
Si2413 O2562   1.628   .     S
Si2413 O2570   1.623   .     S
Si2413 O2630   1.623   .     S
Si2414 O2527   1.621   .     S
Si2414 O2573   1.627   .     S
Si2414 O2587   1.626   .     S
Si2414 O2588   1.621   .     S
Si2415 O2573   1.629   .     S
Si2415 O2574   1.622   .     S
Si2415 O2578   1.626   .     S
Si2415 O2585   1.625   .     S
Si2416 O2574   1.624   .     S
Si2416 O2575   1.623   .     S
Si2416 O2613   1.618   .     S
Si2416 O2614   1.628   .     S
Si2417 O2575   1.621   .     S
Si2417 O2576   1.621   .     S
Si2417 O2610   1.621   .     S
Si2417 O2611   1.627   .     S
Si2418 O2576   1.627   .     S
Si2418 O2577   1.624   .     S
Si2418 O2586   1.626   .     S
Si2419 O2577   1.623   .     S
Si2419 O2578   1.626   .     S
Si2419 O2590   1.625   .     S
Si2419 O2591   1.620   .     S
Si2420 O2528   1.633   .     S
Si2420 O2579   1.623   .     S
Si2420 O2589   1.626   .     S
Si2420 O2617   1.623   .     S
Si2421 O2579   1.627   .     S
Si2421 O2580   1.608   .     S
Si2421 O2584   1.627   .     S
Si2421 O2585   1.626   .     S
Si2422 O2580   1.631   .     S
Si2422 O2581   1.639   .     S
Si2422 O2612   1.629   .     S
Si2422 O2619   1.596   .     S
Si2423 O2581   1.625   .     S
Si2423 O2582   1.629   .     S
Si2423 O2609   1.629   .     S
Si2423 O2620   1.621   .     S
Si2424 O2582   1.621   .     S
Si2424 O2583   1.628   .     S
Si2424 O2586   1.627   .     S
Si2425 O2583   1.629   .     S
Si2425 O2584   1.628   .     S
Si2425 O2592   1.628   .     S
Si2425 O2618   1.623   .     S
Si2426 O2505   1.624   .     S
Si2426 O2595   1.625   .     S
Si2426 O2609   1.624   .     S
Si2426 O2610   1.625   .     S
Si2427 O2595   1.622   .     S
Si2427 O2596   1.625   .     S
Si2427 O2600   1.623   .     S
Si2427 O2607   1.627   .     S
Si2428 O2591   1.620   .     S
Si2428 O2592   1.625   .     S
Si2429 O2588   1.619   .     S
Si2429 O2589   1.623   .     S
Si2430 O2598   1.622   .     S
Si2430 O2599   1.618   .     S
Si2430 O2608   1.627   .     S
Si2430 O2615   1.628   .     S
Si2431 O2599   1.625   .     S
Si2431 O2600   1.628   .     S
Si2431 O2612   1.614   .     S
Si2431 O2613   1.624   .     S
Si2432 O2506   1.629   .     S
Si2432 O2601   1.624   .     S
Si2432 O2611   1.629   .     S
Si2432 O2621   1.623   .     S
Si2433 O2601   1.621   .     S
Si2433 O2602   1.619   .     S
Si2433 O2606   1.628   .     S
Si2433 O2607   1.622   .     S
Si2434 O2590   1.621   .     S
Si2434 O2603   1.634   .     S
Si2434 O2623   1.620   .     S
Si2435 O2587   1.621   .     S
Si2435 O2603   1.631   .     S
Si2435 O2624   1.627   .     S
Si2436 O2604   1.625   .     S
Si2436 O2605   1.624   .     S
Si2436 O2608   1.623   .     S
Si2436 O2616   1.627   .     S
Si2437 O2605   1.627   .     S
Si2437 O2606   1.630   .     S
Si2437 O2614   1.624   .     S
Si2437 O2622   1.626   .     S
Si2438 O2554   1.629   .     S
Si2438 O2555   1.621   .     S
Si2438 O2564   1.628   .     S
Si2438 O2571   1.621   .     S
Si2439 O2560   1.624   .     S
Si2439 O2561   1.625   .     S
Si2439 O2564   1.624   .     S
Si2439 O2572   1.626   .     S
Al2440 O2448   1.722   .     S
Al2440 O2449   1.721   .     S
Al2440 O2480   1.890   .     S
Al2440 O2619   1.711   .     S
O2461  Si2935  1.627   .     S
O2462  Si2940  1.627   .     S
O2464  Si4116  1.625   .     S
O2466  Si4117  1.627   .     S
O2470  Si4122  1.620   .     S
O2472  Si4123  1.627   .     S
O2593  Si3004  1.626   .     S
O2594  Si3010  1.629   .     S
O2596  Si4186  1.624   .     S
O2597  Si4186  1.623   .     S
O2597  Si4187  1.618   .     S
O2598  Si4187  1.619   .     S
O2602  Si4192  1.622   .     S
O2604  Si4193  1.622   .     S
O2621  Si2650  1.623   1_545 S
O2622  Si2655  1.621   1_545 S
O2623  Si2652  1.618   1_545 S
O2624  Si2653  1.624   1_545 S
O2625  Si2686  1.619   1_545 S
O2626  Si2691  1.623   1_545 S
O2627  Si2688  1.623   1_545 S
O2628  Si2689  1.625   1_545 S
Si2633 O2729   1.625   .     S
Si2633 O2743   1.629   .     S
Si2633 O2744   1.623   .     S
Si2633 O2859   1.620   .     S
Si2634 O2729   1.629   .     S
Si2634 O2730   1.628   .     S
Si2634 O2734   1.625   .     S
Si2634 O2741   1.624   .     S
Si2635 O2730   1.622   .     S
Si2635 O2731   1.615   .     S
Si2635 O2769   1.635   .     S
Si2635 O2770   1.625   .     S
Si2636 O2731   1.622   .     S
Si2636 O2732   1.615   .     S
Si2636 O2766   1.620   .     S
Si2636 O2767   1.623   .     S
Si2637 O2732   1.622   .     S
Si2637 O2733   1.624   .     S
Si2637 O2742   1.622   .     S
Si2638 O2733   1.621   .     S
Si2638 O2734   1.626   .     S
Si2638 O2746   1.623   .     S
Si2638 O2747   1.622   .     S
Si2639 O2735   1.615   .     S
Si2639 O2745   1.628   .     S
Si2639 O2860   1.633   .     S
Si2639 O2905   1.622   .     S
Si2640 O2735   1.630   .     S
Si2640 O2736   1.595   .     S
Si2640 O2740   1.635   .     S
Si2640 O2741   1.639   .     S
Si2641 O2737   1.609   .     S
Si2641 O2738   1.631   .     S
Si2641 O2765   1.637   .     S
Si2641 O2908   1.634   .     S
Si2642 O2738   1.615   .     S
Si2642 O2739   1.626   .     S
Si2642 O2742   1.625   .     S
Si2643 O2739   1.627   .     S
Si2643 O2740   1.624   .     S
Si2643 O2748   1.628   .     S
Si2643 O2906   1.622   .     S
Si2644 O2751   1.627   .     S
Si2644 O2765   1.620   .     S
Si2644 O2766   1.628   .     S
Si2644 O2837   1.622   .     S
Si2645 O2751   1.614   .     S
Si2645 O2752   1.617   .     S
Si2645 O2756   1.640   .     S
Si2645 O2763   1.620   .     S
Si2646 O2747   1.619   .     S
Si2646 O2748   1.620   .     S
Si2646 O2753   1.621   .     S
Si2647 O2744   1.619   .     S
Si2647 O2745   1.621   .     S
Si2647 O2753   1.616   .     S
Si2648 O2754   1.619   .     S
Si2648 O2755   1.631   .     S
Si2648 O2764   1.619   .     S
Si2648 O2771   1.622   .     S
Si2649 O2755   1.611   .     S
Si2649 O2756   1.607   .     S
Si2649 O2768   1.700   .     S
Si2649 O2769   1.602   .     S
Si2650 O2757   1.622   .     S
Si2650 O2767   1.624   .     S
Si2650 O2838   1.631   .     S
Si2650 O2621   1.623   1_565 S
Si2651 O2757   1.616   .     S
Si2651 O2758   1.614   .     S
Si2651 O2762   1.625   .     S
Si2651 O2763   1.622   .     S
Si2652 O2746   1.619   .     S
Si2652 O2759   1.633   .     S
Si2652 O2623   1.618   1_565 S
Si2653 O2743   1.622   .     S
Si2653 O2759   1.632   .     S
Si2653 O2624   1.624   1_565 S
Si2654 O2760   1.622   .     S
Si2654 O2761   1.623   .     S
Si2654 O2764   1.628   .     S
Si2654 O2772   1.624   .     S
Si2655 O2761   1.628   .     S
Si2655 O2762   1.627   .     S
Si2655 O2770   1.627   .     S
Si2655 O2622   1.621   1_565 S
Si2656 O2773   1.621   .     S
Si2656 O2787   1.627   .     S
Si2656 O2788   1.626   .     S
Si2656 O2903   1.623   .     S
Si2657 O2773   1.620   .     S
Si2657 O2774   1.627   .     S
Si2657 O2778   1.618   .     S
Si2657 O2785   1.625   .     S
Si2658 O2774   1.625   .     S
Si2658 O2775   1.624   .     S
Si2658 O2813   1.624   .     S
Si2658 O2814   1.627   .     S
Si2659 O2775   1.624   .     S
Si2659 O2776   1.620   .     S
Si2659 O2810   1.624   .     S
Si2659 O2811   1.624   .     S
Si2660 O2776   1.629   .     S
Si2660 O2777   1.625   .     S
Si2660 O2786   1.628   .     S
Si2660 O3379   1.619   .     S
Si2661 O2777   1.623   .     S
Si2661 O2778   1.622   .     S
Si2661 O2790   1.624   .     S
Si2661 O2791   1.627   .     S
Si2662 O2779   1.621   .     S
Si2662 O2789   1.624   .     S
Si2662 O2904   1.628   .     S
Si2662 O2913   1.622   .     S
Si2663 O2779   1.618   .     S
Si2663 O2780   1.620   .     S
Si2663 O2784   1.625   .     S
Si2663 O2785   1.624   .     S
Si2664 O2780   1.625   .     S
Si2664 O2781   1.632   .     S
Si2664 O2812   1.621   .     S
Si2664 O2915   1.622   .     S
Si2665 O2781   1.633   .     S
Si2665 O2782   1.621   .     S
Si2665 O2809   1.622   .     S
Si2665 O2916   1.625   .     S
Si2666 O2782   1.624   .     S
Si2666 O2783   1.629   .     S
Si2666 O2786   1.623   .     S
Si2666 O3380   1.624   .     S
Si2667 O2783   1.628   .     S
Si2667 O2784   1.628   .     S
Si2667 O2792   1.627   .     S
Si2667 O2914   1.625   .     S
Si2668 O2795   1.621   .     S
Si2668 O2809   1.626   .     S
Si2668 O2810   1.627   .     S
Si2668 O2881   1.624   .     S
Si2669 O2795   1.620   .     S
Si2669 O2796   1.624   .     S
Si2669 O2800   1.622   .     S
Si2669 O2807   1.622   .     S
Si2670 O2791   1.626   .     S
Si2670 O2792   1.627   .     S
Si2670 O2797   1.625   .     S
Si2670 O4554   1.622   .     S
Si2671 O2788   1.624   .     S
Si2671 O2789   1.622   .     S
Si2671 O2797   1.620   .     S
Si2671 O4556   1.618   .     S
Si2672 O2798   1.625   .     S
Si2672 O2799   1.622   .     S
Si2672 O2808   1.627   .     S
Si2672 O2815   1.621   .     S
Si2673 O2799   1.622   .     S
Si2673 O2800   1.623   .     S
Si2673 O2812   1.624   .     S
Si2673 O2813   1.626   .     S
Si2674 O2801   1.623   .     S
Si2674 O2811   1.630   .     S
Si2674 O2882   1.628   .     S
Si2674 O2917   1.620   .     S
Si2675 O2801   1.617   .     S
Si2675 O2802   1.623   .     S
Si2675 O2806   1.628   .     S
Si2675 O2807   1.621   .     S
Si2676 O2790   1.622   .     S
Si2676 O2803   1.635   .     S
Si2676 O2919   1.625   .     S
Si2676 O4560   1.624   .     S
Si2677 O2787   1.624   .     S
Si2677 O2803   1.632   .     S
Si2677 O2920   1.625   .     S
Si2677 O4562   1.622   .     S
Si2678 O2804   1.626   .     S
Si2678 O2805   1.629   .     S
Si2678 O2808   1.622   .     S
Si2678 O2816   1.625   .     S
Si2679 O2805   1.630   .     S
Si2679 O2806   1.625   .     S
Si2679 O2814   1.627   .     S
Si2679 O2918   1.621   .     S
Si2680 O2771   1.627   .     S
Si2680 O2817   1.620   .     S
Si2680 O2831   1.627   .     S
Si2680 O2832   1.623   .     S
Si2681 O2817   1.624   .     S
Si2681 O2818   1.621   .     S
Si2681 O2822   1.619   .     S
Si2681 O2829   1.624   .     S
Si2682 O2818   1.623   .     S
Si2682 O2819   1.623   .     S
Si2682 O2857   1.624   .     S
Si2682 O2858   1.624   .     S
Si2683 O2819   1.622   .     S
Si2683 O2820   1.620   .     S
Si2683 O2854   1.624   .     S
Si2683 O2855   1.622   .     S
Si2684 O2820   1.625   .     S
Si2684 O2821   1.624   .     S
Si2684 O2830   1.630   .     S
Si2684 O3423   1.618   .     S
Si2685 O2821   1.621   .     S
Si2685 O2822   1.623   .     S
Si2685 O2834   1.624   .     S
Si2685 O2835   1.625   .     S
Si2686 O2772   1.628   .     S
Si2686 O2823   1.624   .     S
Si2686 O2833   1.625   .     S
Si2686 O2625   1.619   1_565 S
Si2687 O2823   1.622   .     S
Si2687 O2824   1.620   .     S
Si2687 O2828   1.625   .     S
Si2687 O2829   1.623   .     S
Si2688 O2824   1.625   .     S
Si2688 O2825   1.631   .     S
Si2688 O2856   1.621   .     S
Si2688 O2627   1.623   1_565 S
Si2689 O2825   1.632   .     S
Si2689 O2826   1.621   .     S
Si2689 O2853   1.623   .     S
Si2689 O2628   1.625   1_565 S
Si2690 O2826   1.624   .     S
Si2690 O2827   1.627   .     S
Si2690 O2830   1.625   .     S
Si2690 O3424   1.626   .     S
Si2691 O2827   1.627   .     S
Si2691 O2828   1.628   .     S
Si2691 O2836   1.627   .     S
Si2691 O2626   1.623   1_565 S
Si2692 O2749   1.625   .     S
Si2692 O2839   1.620   .     S
Si2692 O2853   1.627   .     S
Si2692 O2854   1.626   .     S
Si2693 O2839   1.619   .     S
Si2693 O2840   1.625   .     S
Si2693 O2844   1.623   .     S
Si2693 O2851   1.623   .     S
Si2694 O2835   1.623   .     S
Si2694 O2836   1.626   .     S
Si2694 O2841   1.624   .     S
Si2694 O4598   1.623   .     S
Si2695 O2832   1.623   .     S
Si2695 O2833   1.622   .     S
Si2695 O2841   1.619   .     S
Si2695 O4600   1.621   .     S
Si2696 O2843   1.621   .     S
Si2696 O2844   1.624   .     S
Si2696 O2856   1.623   .     S
Si2696 O2857   1.625   .     S
Si2697 O2750   1.625   .     S
Si2697 O2845   1.624   .     S
Si2697 O2855   1.629   .     S
Si2697 O2917   1.621   .     S
Si2698 O2845   1.618   .     S
Si2698 O2846   1.619   .     S
Si2698 O2850   1.628   .     S
Si2698 O2851   1.623   .     S
Si2699 O2834   1.622   .     S
Si2699 O2847   1.635   .     S
Si2699 O2919   1.623   .     S
Si2699 O4604   1.621   .     S
Si2700 O2831   1.625   .     S
Si2700 O2847   1.630   .     S
Si2700 O2920   1.624   .     S
Si2700 O4606   1.622   .     S
Si2701 O2849   1.626   .     S
Si2701 O2850   1.628   .     S
Si2701 O2858   1.623   .     S
Si2701 O2918   1.623   .     S
Si2702 O2815   1.621   .     S
Si2702 O2861   1.627   .     S
Si2702 O2875   1.626   .     S
Si2702 O2876   1.621   .     S
Si2703 O2861   1.629   .     S
Si2703 O2862   1.622   .     S
Si2703 O2866   1.626   .     S
Si2703 O2873   1.625   .     S
Si2704 O2862   1.624   .     S
Si2704 O2863   1.623   .     S
Si2704 O2901   1.618   .     S
Si2704 O2902   1.628   .     S
Si2705 O2863   1.621   .     S
Si2705 O2864   1.621   .     S
Si2705 O2898   1.621   .     S
Si2705 O2899   1.627   .     S
Si2706 O2864   1.627   .     S
Si2706 O2865   1.624   .     S
Si2706 O2874   1.626   .     S
Si2707 O2865   1.623   .     S
Si2707 O2866   1.626   .     S
Si2707 O2878   1.625   .     S
Si2707 O2879   1.620   .     S
Si2708 O2816   1.633   .     S
Si2708 O2867   1.623   .     S
Si2708 O2877   1.626   .     S
Si2708 O2905   1.623   .     S
Si2709 O2867   1.627   .     S
Si2709 O2868   1.608   .     S
Si2709 O2872   1.627   .     S
Si2709 O2873   1.626   .     S
Si2710 O2868   1.631   .     S
Si2710 O2869   1.639   .     S
Si2710 O2900   1.629   .     S
Si2710 O2907   1.596   .     S
Si2711 O2869   1.625   .     S
Si2711 O2870   1.629   .     S
Si2711 O2897   1.629   .     S
Si2711 O2908   1.621   .     S
Si2712 O2870   1.621   .     S
Si2712 O2871   1.628   .     S
Si2712 O2874   1.627   .     S
Si2713 O2871   1.629   .     S
Si2713 O2872   1.628   .     S
Si2713 O2880   1.628   .     S
Si2713 O2906   1.623   .     S
Si2714 O2793   1.624   .     S
Si2714 O2883   1.625   .     S
Si2714 O2897   1.624   .     S
Si2714 O2898   1.625   .     S
Si2715 O2883   1.622   .     S
Si2715 O2884   1.625   .     S
Si2715 O2888   1.623   .     S
Si2715 O2895   1.627   .     S
Si2716 O2879   1.620   .     S
Si2716 O2880   1.625   .     S
Si2717 O2876   1.619   .     S
Si2717 O2877   1.623   .     S
Si2718 O2886   1.622   .     S
Si2718 O2887   1.618   .     S
Si2718 O2896   1.627   .     S
Si2718 O2903   1.628   .     S
Si2719 O2887   1.625   .     S
Si2719 O2888   1.628   .     S
Si2719 O2900   1.614   .     S
Si2719 O2901   1.624   .     S
Si2720 O2794   1.629   .     S
Si2720 O2889   1.624   .     S
Si2720 O2899   1.629   .     S
Si2720 O2909   1.623   .     S
Si2721 O2889   1.621   .     S
Si2721 O2890   1.619   .     S
Si2721 O2894   1.628   .     S
Si2721 O2895   1.622   .     S
Si2722 O2878   1.621   .     S
Si2722 O2891   1.634   .     S
Si2722 O2911   1.620   .     S
Si2723 O2875   1.621   .     S
Si2723 O2891   1.631   .     S
Si2723 O2912   1.628   .     S
Si2724 O2892   1.625   .     S
Si2724 O2893   1.624   .     S
Si2724 O2896   1.623   .     S
Si2724 O2904   1.627   .     S
Si2725 O2893   1.627   .     S
Si2725 O2894   1.630   .     S
Si2725 O2902   1.624   .     S
Si2725 O2910   1.626   .     S
Si2726 O2842   1.629   .     S
Si2726 O2843   1.621   .     S
Si2726 O2852   1.628   .     S
Si2726 O2859   1.621   .     S
Si2727 O2848   1.624   .     S
Si2727 O2849   1.625   .     S
Si2727 O2852   1.624   .     S
Si2727 O2860   1.626   .     S
Al2728 O2736   1.722   .     S
Al2728 O2737   1.721   .     S
Al2728 O2768   1.890   .     S
Al2728 O2907   1.711   .     S
O2749  Si3223  1.627   .     S
O2750  Si3228  1.627   .     S
O2752  Si4404  1.625   .     S
O2754  Si4405  1.627   .     S
O2758  Si4410  1.620   .     S
O2760  Si4411  1.627   .     S
O2768  H2921   0.999   .     S
O2881  Si3292  1.626   .     S
O2882  Si3298  1.629   .     S
O2884  Si4474  1.624   .     S
O2885  Si4474  1.623   .     S
O2885  Si4475  1.618   .     S
O2886  Si4475  1.619   .     S
O2890  Si4480  1.622   .     S
O2892  Si4481  1.622   .     S
H2922  C2928   1.089   .     S
H2923  C2929   1.087   .     S
H2924  C2926   1.090   .     S
H2925  C2927   1.088   .     S
C2926  C2927   1.373   .     D
C2926  C2928   1.429   .     S
C2927  S2930   1.723   .     S
C2928  C2929   1.372   .     D
C2929  S2930   1.722   .     S
Si2931 O3027   1.625   .     S
Si2931 O3041   1.629   .     S
Si2931 O3042   1.623   .     S
Si2931 O3157   1.620   .     S
Si2932 O3027   1.629   .     S
Si2932 O3028   1.628   .     S
Si2932 O3032   1.625   .     S
Si2932 O3039   1.624   .     S
Si2933 O3028   1.622   .     S
Si2933 O3029   1.615   .     S
Si2933 O3067   1.635   .     S
Si2933 O3068   1.625   .     S
Si2934 O3029   1.622   .     S
Si2934 O3030   1.615   .     S
Si2934 O3064   1.620   .     S
Si2934 O3065   1.623   .     S
Si2935 O3030   1.622   .     S
Si2935 O3031   1.624   .     S
Si2935 O3040   1.622   .     S
Si2936 O3031   1.621   .     S
Si2936 O3032   1.626   .     S
Si2936 O3044   1.623   .     S
Si2936 O3045   1.622   .     S
Si2937 O3033   1.615   .     S
Si2937 O3043   1.628   .     S
Si2937 O3158   1.633   .     S
Si2937 O3203   1.622   .     S
Si2938 O3033   1.630   .     S
Si2938 O3034   1.595   .     S
Si2938 O3038   1.635   .     S
Si2938 O3039   1.639   .     S
Si2939 O3035   1.609   .     S
Si2939 O3036   1.631   .     S
Si2939 O3063   1.637   .     S
Si2939 O3206   1.634   .     S
Si2940 O3036   1.615   .     S
Si2940 O3037   1.626   .     S
Si2940 O3040   1.625   .     S
Si2941 O3037   1.627   .     S
Si2941 O3038   1.624   .     S
Si2941 O3046   1.628   .     S
Si2941 O3204   1.622   .     S
Si2942 O3049   1.627   .     S
Si2942 O3063   1.620   .     S
Si2942 O3064   1.628   .     S
Si2942 O3135   1.622   .     S
Si2943 O3049   1.614   .     S
Si2943 O3050   1.617   .     S
Si2943 O3054   1.640   .     S
Si2943 O3061   1.620   .     S
Si2944 O3045   1.619   .     S
Si2944 O3046   1.620   .     S
Si2944 O3051   1.621   .     S
Si2945 O3042   1.619   .     S
Si2945 O3043   1.621   .     S
Si2945 O3051   1.616   .     S
Si2946 O3052   1.619   .     S
Si2946 O3053   1.631   .     S
Si2946 O3062   1.619   .     S
Si2946 O3069   1.622   .     S
Si2947 O3053   1.611   .     S
Si2947 O3054   1.607   .     S
Si2947 O3066   1.700   .     S
Si2947 O3067   1.602   .     S
Si2948 O3055   1.622   .     S
Si2948 O3065   1.624   .     S
Si2948 O3136   1.631   .     S
Si2948 O3495   1.623   .     S
Si2949 O3055   1.616   .     S
Si2949 O3056   1.614   .     S
Si2949 O3060   1.625   .     S
Si2949 O3061   1.622   .     S
Si2950 O3044   1.619   .     S
Si2950 O3057   1.633   .     S
Si2950 O3497   1.618   .     S
Si2951 O3041   1.622   .     S
Si2951 O3057   1.632   .     S
Si2951 O3498   1.623   .     S
Si2952 O3058   1.622   .     S
Si2952 O3059   1.623   .     S
Si2952 O3062   1.628   .     S
Si2952 O3070   1.624   .     S
Si2953 O3059   1.628   .     S
Si2953 O3060   1.627   .     S
Si2953 O3068   1.627   .     S
Si2953 O3496   1.621   .     S
Si2954 O3071   1.621   .     S
Si2954 O3085   1.627   .     S
Si2954 O3086   1.626   .     S
Si2954 O3201   1.623   .     S
Si2955 O3071   1.620   .     S
Si2955 O3072   1.627   .     S
Si2955 O3076   1.618   .     S
Si2955 O3083   1.625   .     S
Si2956 O3072   1.625   .     S
Si2956 O3073   1.624   .     S
Si2956 O3111   1.624   .     S
Si2956 O3112   1.627   .     S
Si2957 O3073   1.624   .     S
Si2957 O3074   1.620   .     S
Si2957 O3108   1.624   .     S
Si2957 O3109   1.624   .     S
Si2958 O3074   1.629   .     S
Si2958 O3075   1.625   .     S
Si2958 O3084   1.628   .     S
Si2958 O1919   1.619   1_655 S
Si2959 O3075   1.623   .     S
Si2959 O3076   1.622   .     S
Si2959 O3088   1.624   .     S
Si2959 O3089   1.627   .     S
Si2960 O3077   1.621   .     S
Si2960 O3087   1.624   .     S
Si2960 O3202   1.628   .     S
Si2960 O3211   1.622   .     S
Si2961 O3077   1.618   .     S
Si2961 O3078   1.620   .     S
Si2961 O3082   1.625   .     S
Si2961 O3083   1.624   .     S
Si2962 O3078   1.625   .     S
Si2962 O3079   1.632   .     S
Si2962 O3110   1.621   .     S
Si2962 O3213   1.622   .     S
Si2963 O3079   1.633   .     S
Si2963 O3080   1.621   .     S
Si2963 O3107   1.622   .     S
Si2963 O3214   1.625   .     S
Si2964 O3080   1.624   .     S
Si2964 O3081   1.629   .     S
Si2964 O3084   1.623   .     S
Si2964 O1920   1.624   1_655 S
Si2965 O3081   1.628   .     S
Si2965 O3082   1.628   .     S
Si2965 O3090   1.627   .     S
Si2965 O3212   1.625   .     S
Si2966 O3093   1.621   .     S
Si2966 O3107   1.626   .     S
Si2966 O3108   1.627   .     S
Si2966 O3179   1.624   .     S
Si2967 O3093   1.620   .     S
Si2967 O3094   1.624   .     S
Si2967 O3098   1.622   .     S
Si2967 O3105   1.622   .     S
Si2968 O3089   1.626   .     S
Si2968 O3090   1.627   .     S
Si2968 O3095   1.625   .     S
Si2968 O4852   1.622   .     S
Si2969 O3086   1.624   .     S
Si2969 O3087   1.622   .     S
Si2969 O3095   1.620   .     S
Si2969 O4854   1.618   .     S
Si2970 O3096   1.625   .     S
Si2970 O3097   1.622   .     S
Si2970 O3106   1.627   .     S
Si2970 O3113   1.621   .     S
Si2971 O3097   1.622   .     S
Si2971 O3098   1.623   .     S
Si2971 O3110   1.624   .     S
Si2971 O3111   1.626   .     S
Si2972 O3099   1.623   .     S
Si2972 O3109   1.630   .     S
Si2972 O3180   1.628   .     S
Si2972 O3215   1.620   .     S
Si2973 O3099   1.617   .     S
Si2973 O3100   1.623   .     S
Si2973 O3104   1.628   .     S
Si2973 O3105   1.621   .     S
Si2974 O3088   1.622   .     S
Si2974 O3101   1.635   .     S
Si2974 O3217   1.625   .     S
Si2974 O4858   1.624   .     S
Si2975 O3085   1.624   .     S
Si2975 O3101   1.632   .     S
Si2975 O3218   1.625   .     S
Si2975 O4860   1.622   .     S
Si2976 O3102   1.626   .     S
Si2976 O3103   1.629   .     S
Si2976 O3106   1.622   .     S
Si2976 O3114   1.625   .     S
Si2977 O3103   1.630   .     S
Si2977 O3104   1.625   .     S
Si2977 O3112   1.627   .     S
Si2977 O3216   1.621   .     S
Si2978 O3069   1.627   .     S
Si2978 O3115   1.620   .     S
Si2978 O3129   1.627   .     S
Si2978 O3130   1.623   .     S
Si2979 O3115   1.624   .     S
Si2979 O3116   1.621   .     S
Si2979 O3120   1.619   .     S
Si2979 O3127   1.624   .     S
Si2980 O3116   1.623   .     S
Si2980 O3117   1.623   .     S
Si2980 O3155   1.624   .     S
Si2980 O3156   1.624   .     S
Si2981 O3117   1.622   .     S
Si2981 O3118   1.620   .     S
Si2981 O3152   1.624   .     S
Si2981 O3153   1.622   .     S
Si2982 O3118   1.625   .     S
Si2982 O3119   1.624   .     S
Si2982 O3128   1.630   .     S
Si2982 O1963   1.618   1_655 S
Si2983 O3119   1.621   .     S
Si2983 O3120   1.623   .     S
Si2983 O3132   1.624   .     S
Si2983 O3133   1.625   .     S
Si2984 O3070   1.628   .     S
Si2984 O3121   1.624   .     S
Si2984 O3131   1.625   .     S
Si2984 O3499   1.619   .     S
Si2985 O3121   1.622   .     S
Si2985 O3122   1.620   .     S
Si2985 O3126   1.625   .     S
Si2985 O3127   1.623   .     S
Si2986 O3122   1.625   .     S
Si2986 O3123   1.631   .     S
Si2986 O3154   1.621   .     S
Si2986 O3501   1.623   .     S
Si2987 O3123   1.632   .     S
Si2987 O3124   1.621   .     S
Si2987 O3151   1.623   .     S
Si2987 O3502   1.625   .     S
Si2988 O3124   1.624   .     S
Si2988 O3125   1.627   .     S
Si2988 O3128   1.625   .     S
Si2988 O1964   1.626   1_655 S
Si2989 O3125   1.627   .     S
Si2989 O3126   1.628   .     S
Si2989 O3134   1.627   .     S
Si2989 O3500   1.623   .     S
Si2990 O3047   1.625   .     S
Si2990 O3137   1.620   .     S
Si2990 O3151   1.627   .     S
Si2990 O3152   1.626   .     S
Si2991 O3137   1.619   .     S
Si2991 O3138   1.625   .     S
Si2991 O3142   1.623   .     S
Si2991 O3149   1.623   .     S
Si2992 O3133   1.623   .     S
Si2992 O3134   1.626   .     S
Si2992 O3139   1.624   .     S
Si2992 O4896   1.623   .     S
Si2993 O3130   1.623   .     S
Si2993 O3131   1.622   .     S
Si2993 O3139   1.619   .     S
Si2993 O4898   1.621   .     S
Si2994 O3141   1.621   .     S
Si2994 O3142   1.624   .     S
Si2994 O3154   1.623   .     S
Si2994 O3155   1.625   .     S
Si2995 O3048   1.625   .     S
Si2995 O3143   1.624   .     S
Si2995 O3153   1.629   .     S
Si2995 O3215   1.621   .     S
Si2996 O3143   1.618   .     S
Si2996 O3144   1.619   .     S
Si2996 O3148   1.628   .     S
Si2996 O3149   1.623   .     S
Si2997 O3132   1.622   .     S
Si2997 O3145   1.635   .     S
Si2997 O3217   1.623   .     S
Si2997 O4902   1.621   .     S
Si2998 O3129   1.625   .     S
Si2998 O3145   1.630   .     S
Si2998 O3218   1.624   .     S
Si2998 O4904   1.622   .     S
Si2999 O3147   1.626   .     S
Si2999 O3148   1.628   .     S
Si2999 O3156   1.623   .     S
Si2999 O3216   1.623   .     S
Si3000 O3113   1.621   .     S
Si3000 O3159   1.627   .     S
Si3000 O3173   1.626   .     S
Si3000 O3174   1.621   .     S
Si3001 O3159   1.629   .     S
Si3001 O3160   1.622   .     S
Si3001 O3164   1.626   .     S
Si3001 O3171   1.625   .     S
Si3002 O3160   1.624   .     S
Si3002 O3161   1.623   .     S
Si3002 O3199   1.618   .     S
Si3002 O3200   1.628   .     S
Si3003 O3161   1.621   .     S
Si3003 O3162   1.621   .     S
Si3003 O3196   1.621   .     S
Si3003 O3197   1.627   .     S
Si3004 O3162   1.627   .     S
Si3004 O3163   1.624   .     S
Si3004 O3172   1.626   .     S
Si3005 O3163   1.623   .     S
Si3005 O3164   1.626   .     S
Si3005 O3176   1.625   .     S
Si3005 O3177   1.620   .     S
Si3006 O3114   1.633   .     S
Si3006 O3165   1.623   .     S
Si3006 O3175   1.626   .     S
Si3006 O3203   1.623   .     S
Si3007 O3165   1.627   .     S
Si3007 O3166   1.608   .     S
Si3007 O3170   1.627   .     S
Si3007 O3171   1.626   .     S
Si3008 O3166   1.631   .     S
Si3008 O3167   1.639   .     S
Si3008 O3198   1.629   .     S
Si3008 O3205   1.596   .     S
Si3009 O3167   1.625   .     S
Si3009 O3168   1.629   .     S
Si3009 O3195   1.629   .     S
Si3009 O3206   1.621   .     S
Si3010 O3168   1.621   .     S
Si3010 O3169   1.628   .     S
Si3010 O3172   1.627   .     S
Si3011 O3169   1.629   .     S
Si3011 O3170   1.628   .     S
Si3011 O3178   1.628   .     S
Si3011 O3204   1.623   .     S
Si3012 O3091   1.624   .     S
Si3012 O3181   1.625   .     S
Si3012 O3195   1.624   .     S
Si3012 O3196   1.625   .     S
Si3013 O3181   1.622   .     S
Si3013 O3182   1.625   .     S
Si3013 O3186   1.623   .     S
Si3013 O3193   1.627   .     S
Si3014 O3177   1.620   .     S
Si3014 O3178   1.625   .     S
Si3015 O3174   1.619   .     S
Si3015 O3175   1.623   .     S
Si3016 O3184   1.622   .     S
Si3016 O3185   1.618   .     S
Si3016 O3194   1.627   .     S
Si3016 O3201   1.628   .     S
Si3017 O3185   1.625   .     S
Si3017 O3186   1.628   .     S
Si3017 O3198   1.614   .     S
Si3017 O3199   1.624   .     S
Si3018 O3092   1.629   .     S
Si3018 O3187   1.624   .     S
Si3018 O3197   1.629   .     S
Si3018 O3207   1.623   .     S
Si3019 O3187   1.621   .     S
Si3019 O3188   1.619   .     S
Si3019 O3192   1.628   .     S
Si3019 O3193   1.622   .     S
Si3020 O3176   1.621   .     S
Si3020 O3189   1.634   .     S
Si3020 O3209   1.620   .     S
Si3021 O3173   1.621   .     S
Si3021 O3189   1.631   .     S
Si3021 O3210   1.627   .     S
Si3022 O3190   1.625   .     S
Si3022 O3191   1.624   .     S
Si3022 O3194   1.623   .     S
Si3022 O3202   1.627   .     S
Si3023 O3191   1.627   .     S
Si3023 O3192   1.630   .     S
Si3023 O3200   1.624   .     S
Si3023 O3208   1.626   .     S
Si3024 O3140   1.629   .     S
Si3024 O3141   1.621   .     S
Si3024 O3150   1.628   .     S
Si3024 O3157   1.621   .     S
Si3025 O3146   1.624   .     S
Si3025 O3147   1.625   .     S
Si3025 O3150   1.624   .     S
Si3025 O3158   1.626   .     S
Al3026 O3034   1.722   .     S
Al3026 O3035   1.721   .     S
Al3026 O3066   1.890   .     S
Al3026 O3205   1.711   .     S
O3047  Si1763  1.627   1_655 S
O3048  Si1768  1.627   1_655 S
O3050  Si4702  1.625   .     S
O3052  Si4703  1.627   .     S
O3056  Si4708  1.620   .     S
O3058  Si4709  1.627   .     S
O3179  Si1832  1.626   1_655 S
O3180  Si1838  1.629   1_655 S
O3182  Si4772  1.624   .     S
O3183  Si4772  1.623   .     S
O3183  Si4773  1.618   .     S
O3184  Si4773  1.619   .     S
O3188  Si4778  1.622   .     S
O3190  Si4779  1.622   .     S
O3207  Si3236  1.623   1_545 S
O3208  Si3241  1.621   1_545 S
O3209  Si3238  1.618   1_545 S
O3210  Si3239  1.624   1_545 S
O3211  Si3272  1.619   1_545 S
O3212  Si3277  1.623   1_545 S
O3213  Si3274  1.623   1_545 S
O3214  Si3275  1.625   1_545 S
Si3219 O3315   1.625   .     S
Si3219 O3329   1.629   .     S
Si3219 O3330   1.623   .     S
Si3219 O3445   1.620   .     S
Si3220 O3315   1.629   .     S
Si3220 O3316   1.628   .     S
Si3220 O3320   1.625   .     S
Si3220 O3327   1.624   .     S
Si3221 O3316   1.622   .     S
Si3221 O3317   1.615   .     S
Si3221 O3355   1.635   .     S
Si3221 O3356   1.625   .     S
Si3222 O3317   1.622   .     S
Si3222 O3318   1.615   .     S
Si3222 O3352   1.620   .     S
Si3222 O3353   1.623   .     S
Si3223 O3318   1.622   .     S
Si3223 O3319   1.624   .     S
Si3223 O3328   1.622   .     S
Si3224 O3319   1.621   .     S
Si3224 O3320   1.626   .     S
Si3224 O3332   1.623   .     S
Si3224 O3333   1.622   .     S
Si3225 O3321   1.615   .     S
Si3225 O3331   1.628   .     S
Si3225 O3446   1.633   .     S
Si3225 O3491   1.622   .     S
Si3226 O3321   1.630   .     S
Si3226 O3322   1.595   .     S
Si3226 O3326   1.635   .     S
Si3226 O3327   1.639   .     S
Si3227 O3323   1.609   .     S
Si3227 O3324   1.631   .     S
Si3227 O3351   1.637   .     S
Si3227 O3494   1.634   .     S
Si3228 O3324   1.615   .     S
Si3228 O3325   1.626   .     S
Si3228 O3328   1.625   .     S
Si3229 O3325   1.627   .     S
Si3229 O3326   1.624   .     S
Si3229 O3334   1.628   .     S
Si3229 O3492   1.622   .     S
Si3230 O3337   1.627   .     S
Si3230 O3351   1.620   .     S
Si3230 O3352   1.628   .     S
Si3230 O3423   1.622   .     S
Si3231 O3337   1.614   .     S
Si3231 O3338   1.617   .     S
Si3231 O3342   1.640   .     S
Si3231 O3349   1.620   .     S
Si3232 O3333   1.619   .     S
Si3232 O3334   1.620   .     S
Si3232 O3339   1.621   .     S
Si3233 O3330   1.619   .     S
Si3233 O3331   1.621   .     S
Si3233 O3339   1.616   .     S
Si3234 O3340   1.619   .     S
Si3234 O3341   1.631   .     S
Si3234 O3350   1.619   .     S
Si3234 O3357   1.622   .     S
Si3235 O3341   1.611   .     S
Si3235 O3342   1.607   .     S
Si3235 O3354   1.700   .     S
Si3235 O3355   1.602   .     S
Si3236 O3343   1.622   .     S
Si3236 O3353   1.624   .     S
Si3236 O3424   1.631   .     S
Si3236 O3207   1.623   1_565 S
Si3237 O3343   1.616   .     S
Si3237 O3344   1.614   .     S
Si3237 O3348   1.625   .     S
Si3237 O3349   1.622   .     S
Si3238 O3332   1.619   .     S
Si3238 O3345   1.633   .     S
Si3238 O3209   1.618   1_565 S
Si3239 O3329   1.622   .     S
Si3239 O3345   1.632   .     S
Si3239 O3210   1.624   1_565 S
Si3240 O3346   1.622   .     S
Si3240 O3347   1.623   .     S
Si3240 O3350   1.628   .     S
Si3240 O3358   1.624   .     S
Si3241 O3347   1.628   .     S
Si3241 O3348   1.627   .     S
Si3241 O3356   1.627   .     S
Si3241 O3208   1.621   1_565 S
Si3242 O3359   1.621   .     S
Si3242 O3373   1.627   .     S
Si3242 O3374   1.626   .     S
Si3242 O3489   1.623   .     S
Si3243 O3359   1.620   .     S
Si3243 O3360   1.627   .     S
Si3243 O3364   1.618   .     S
Si3243 O3371   1.625   .     S
Si3244 O3360   1.625   .     S
Si3244 O3361   1.624   .     S
Si3244 O3399   1.624   .     S
Si3244 O3400   1.627   .     S
Si3245 O3361   1.624   .     S
Si3245 O3362   1.620   .     S
Si3245 O3396   1.624   .     S
Si3245 O3397   1.624   .     S
Si3246 O3362   1.629   .     S
Si3246 O3363   1.625   .     S
Si3246 O3372   1.628   .     S
Si3246 O2207   1.619   1_655 S
Si3247 O3363   1.623   .     S
Si3247 O3364   1.622   .     S
Si3247 O3376   1.624   .     S
Si3247 O3377   1.627   .     S
Si3248 O3365   1.621   .     S
Si3248 O3375   1.624   .     S
Si3248 O3490   1.628   .     S
Si3248 O3499   1.622   .     S
Si3249 O3365   1.618   .     S
Si3249 O3366   1.620   .     S
Si3249 O3370   1.625   .     S
Si3249 O3371   1.624   .     S
Si3250 O3366   1.625   .     S
Si3250 O3367   1.632   .     S
Si3250 O3398   1.621   .     S
Si3250 O3501   1.622   .     S
Si3251 O3367   1.633   .     S
Si3251 O3368   1.621   .     S
Si3251 O3395   1.622   .     S
Si3251 O3502   1.625   .     S
Si3252 O3368   1.624   .     S
Si3252 O3369   1.629   .     S
Si3252 O3372   1.623   .     S
Si3252 O2208   1.624   1_655 S
Si3253 O3369   1.628   .     S
Si3253 O3370   1.628   .     S
Si3253 O3378   1.627   .     S
Si3253 O3500   1.625   .     S
Si3254 O3381   1.621   .     S
Si3254 O3395   1.626   .     S
Si3254 O3396   1.627   .     S
Si3254 O3467   1.624   .     S
Si3255 O3381   1.620   .     S
Si3255 O3382   1.624   .     S
Si3255 O3386   1.622   .     S
Si3255 O3393   1.622   .     S
Si3256 O3377   1.626   .     S
Si3256 O3378   1.627   .     S
Si3256 O3383   1.625   .     S
Si3256 O5140   1.622   .     S
Si3257 O3374   1.624   .     S
Si3257 O3375   1.622   .     S
Si3257 O3383   1.620   .     S
Si3257 O5142   1.618   .     S
Si3258 O3384   1.625   .     S
Si3258 O3385   1.622   .     S
Si3258 O3394   1.627   .     S
Si3258 O3401   1.621   .     S
Si3259 O3385   1.622   .     S
Si3259 O3386   1.623   .     S
Si3259 O3398   1.624   .     S
Si3259 O3399   1.626   .     S
Si3260 O3387   1.623   .     S
Si3260 O3397   1.630   .     S
Si3260 O3468   1.628   .     S
Si3260 O3503   1.620   .     S
Si3261 O3387   1.617   .     S
Si3261 O3388   1.623   .     S
Si3261 O3392   1.628   .     S
Si3261 O3393   1.621   .     S
Si3262 O3376   1.622   .     S
Si3262 O3389   1.635   .     S
Si3262 O3505   1.625   .     S
Si3262 O5146   1.624   .     S
Si3263 O3373   1.624   .     S
Si3263 O3389   1.632   .     S
Si3263 O3506   1.625   .     S
Si3263 O5148   1.622   .     S
Si3264 O3390   1.626   .     S
Si3264 O3391   1.629   .     S
Si3264 O3394   1.622   .     S
Si3264 O3402   1.625   .     S
Si3265 O3391   1.630   .     S
Si3265 O3392   1.625   .     S
Si3265 O3400   1.627   .     S
Si3265 O3504   1.621   .     S
Si3266 O3357   1.627   .     S
Si3266 O3403   1.620   .     S
Si3266 O3417   1.627   .     S
Si3266 O3418   1.623   .     S
Si3267 O3403   1.624   .     S
Si3267 O3404   1.621   .     S
Si3267 O3408   1.619   .     S
Si3267 O3415   1.624   .     S
Si3268 O3404   1.623   .     S
Si3268 O3405   1.623   .     S
Si3268 O3443   1.624   .     S
Si3268 O3444   1.624   .     S
Si3269 O3405   1.622   .     S
Si3269 O3406   1.620   .     S
Si3269 O3440   1.624   .     S
Si3269 O3441   1.622   .     S
Si3270 O3406   1.625   .     S
Si3270 O3407   1.624   .     S
Si3270 O3416   1.630   .     S
Si3270 O2251   1.618   1_655 S
Si3271 O3407   1.621   .     S
Si3271 O3408   1.623   .     S
Si3271 O3420   1.624   .     S
Si3271 O3421   1.625   .     S
Si3272 O3358   1.628   .     S
Si3272 O3409   1.624   .     S
Si3272 O3419   1.625   .     S
Si3272 O3211   1.619   1_565 S
Si3273 O3409   1.622   .     S
Si3273 O3410   1.620   .     S
Si3273 O3414   1.625   .     S
Si3273 O3415   1.623   .     S
Si3274 O3410   1.625   .     S
Si3274 O3411   1.631   .     S
Si3274 O3442   1.621   .     S
Si3274 O3213   1.623   1_565 S
Si3275 O3411   1.632   .     S
Si3275 O3412   1.621   .     S
Si3275 O3439   1.623   .     S
Si3275 O3214   1.625   1_565 S
Si3276 O3412   1.624   .     S
Si3276 O3413   1.627   .     S
Si3276 O3416   1.625   .     S
Si3276 O2252   1.626   1_655 S
Si3277 O3413   1.627   .     S
Si3277 O3414   1.628   .     S
Si3277 O3422   1.627   .     S
Si3277 O3212   1.623   1_565 S
Si3278 O3335   1.625   .     S
Si3278 O3425   1.620   .     S
Si3278 O3439   1.627   .     S
Si3278 O3440   1.626   .     S
Si3279 O3425   1.619   .     S
Si3279 O3426   1.625   .     S
Si3279 O3430   1.623   .     S
Si3279 O3437   1.623   .     S
Si3280 O3421   1.623   .     S
Si3280 O3422   1.626   .     S
Si3280 O3427   1.624   .     S
Si3280 O5184   1.623   .     S
Si3281 O3418   1.623   .     S
Si3281 O3419   1.622   .     S
Si3281 O3427   1.619   .     S
Si3281 O5186   1.621   .     S
Si3282 O3429   1.621   .     S
Si3282 O3430   1.624   .     S
Si3282 O3442   1.623   .     S
Si3282 O3443   1.625   .     S
Si3283 O3336   1.625   .     S
Si3283 O3431   1.624   .     S
Si3283 O3441   1.629   .     S
Si3283 O3503   1.621   .     S
Si3284 O3431   1.618   .     S
Si3284 O3432   1.619   .     S
Si3284 O3436   1.628   .     S
Si3284 O3437   1.623   .     S
Si3285 O3420   1.622   .     S
Si3285 O3433   1.635   .     S
Si3285 O3505   1.623   .     S
Si3285 O5190   1.621   .     S
Si3286 O3417   1.625   .     S
Si3286 O3433   1.630   .     S
Si3286 O3506   1.624   .     S
Si3286 O5192   1.622   .     S
Si3287 O3435   1.626   .     S
Si3287 O3436   1.628   .     S
Si3287 O3444   1.623   .     S
Si3287 O3504   1.623   .     S
Si3288 O3401   1.621   .     S
Si3288 O3447   1.627   .     S
Si3288 O3461   1.626   .     S
Si3288 O3462   1.621   .     S
Si3289 O3447   1.629   .     S
Si3289 O3448   1.622   .     S
Si3289 O3452   1.626   .     S
Si3289 O3459   1.625   .     S
Si3290 O3448   1.624   .     S
Si3290 O3449   1.623   .     S
Si3290 O3487   1.618   .     S
Si3290 O3488   1.628   .     S
Si3291 O3449   1.621   .     S
Si3291 O3450   1.621   .     S
Si3291 O3484   1.621   .     S
Si3291 O3485   1.627   .     S
Si3292 O3450   1.627   .     S
Si3292 O3451   1.624   .     S
Si3292 O3460   1.626   .     S
Si3293 O3451   1.623   .     S
Si3293 O3452   1.626   .     S
Si3293 O3464   1.625   .     S
Si3293 O3465   1.620   .     S
Si3294 O3402   1.633   .     S
Si3294 O3453   1.623   .     S
Si3294 O3463   1.626   .     S
Si3294 O3491   1.623   .     S
Si3295 O3453   1.627   .     S
Si3295 O3454   1.608   .     S
Si3295 O3458   1.627   .     S
Si3295 O3459   1.626   .     S
Si3296 O3454   1.631   .     S
Si3296 O3455   1.639   .     S
Si3296 O3486   1.629   .     S
Si3296 O3493   1.596   .     S
Si3297 O3455   1.625   .     S
Si3297 O3456   1.629   .     S
Si3297 O3483   1.629   .     S
Si3297 O3494   1.621   .     S
Si3298 O3456   1.621   .     S
Si3298 O3457   1.628   .     S
Si3298 O3460   1.627   .     S
Si3299 O3457   1.629   .     S
Si3299 O3458   1.628   .     S
Si3299 O3466   1.628   .     S
Si3299 O3492   1.623   .     S
Si3300 O3379   1.624   .     S
Si3300 O3469   1.625   .     S
Si3300 O3483   1.624   .     S
Si3300 O3484   1.625   .     S
Si3301 O3469   1.622   .     S
Si3301 O3470   1.625   .     S
Si3301 O3474   1.623   .     S
Si3301 O3481   1.627   .     S
Si3302 O3465   1.620   .     S
Si3302 O3466   1.625   .     S
Si3303 O3462   1.619   .     S
Si3303 O3463   1.623   .     S
Si3304 O3472   1.622   .     S
Si3304 O3473   1.618   .     S
Si3304 O3482   1.627   .     S
Si3304 O3489   1.628   .     S
Si3305 O3473   1.625   .     S
Si3305 O3474   1.628   .     S
Si3305 O3486   1.614   .     S
Si3305 O3487   1.624   .     S
Si3306 O3380   1.629   .     S
Si3306 O3475   1.624   .     S
Si3306 O3485   1.629   .     S
Si3306 O3495   1.623   .     S
Si3307 O3475   1.621   .     S
Si3307 O3476   1.619   .     S
Si3307 O3480   1.628   .     S
Si3307 O3481   1.622   .     S
Si3308 O3464   1.621   .     S
Si3308 O3477   1.634   .     S
Si3308 O3497   1.620   .     S
Si3309 O3461   1.621   .     S
Si3309 O3477   1.631   .     S
Si3309 O3498   1.628   .     S
Si3310 O3478   1.625   .     S
Si3310 O3479   1.624   .     S
Si3310 O3482   1.623   .     S
Si3310 O3490   1.627   .     S
Si3311 O3479   1.627   .     S
Si3311 O3480   1.630   .     S
Si3311 O3488   1.624   .     S
Si3311 O3496   1.626   .     S
Si3312 O3428   1.629   .     S
Si3312 O3429   1.621   .     S
Si3312 O3438   1.628   .     S
Si3312 O3445   1.621   .     S
Si3313 O3434   1.624   .     S
Si3313 O3435   1.625   .     S
Si3313 O3438   1.624   .     S
Si3313 O3446   1.626   .     S
Al3314 O3322   1.722   .     S
Al3314 O3323   1.721   .     S
Al3314 O3354   1.890   .     S
Al3314 O3493   1.711   .     S
O3335  Si2051  1.627   1_655 S
O3336  Si2056  1.627   1_655 S
O3338  Si4990  1.625   .     S
O3340  Si4991  1.627   .     S
O3344  Si4996  1.620   .     S
O3346  Si4997  1.627   .     S
O3354  H3507   0.999   .     S
O3467  Si2120  1.626   1_655 S
O3468  Si2126  1.629   1_655 S
O3470  Si5060  1.624   .     S
O3471  Si5060  1.623   .     S
O3471  Si5061  1.618   .     S
O3472  Si5061  1.619   .     S
O3476  Si5066  1.622   .     S
O3478  Si5067  1.622   .     S
H3508  C3514   1.089   .     S
H3509  C3515   1.087   .     S
H3510  C3512   1.090   .     S
H3511  C3513   1.088   .     S
C3512  C3513   1.373   .     D
C3512  C3514   1.429   .     S
C3513  S3516   1.723   .     S
C3514  C3515   1.372   .     D
C3515  S3516   1.722   .     S
Si3517 O3613   1.625   .     S
Si3517 O3627   1.629   .     S
Si3517 O3628   1.623   .     S
Si3517 O3743   1.620   .     S
Si3518 O3613   1.629   .     S
Si3518 O3614   1.628   .     S
Si3518 O3618   1.625   .     S
Si3518 O3625   1.624   .     S
Si3519 O3614   1.622   .     S
Si3519 O3615   1.615   .     S
Si3519 O3653   1.635   .     S
Si3519 O3654   1.625   .     S
Si3520 O3615   1.622   .     S
Si3520 O3616   1.615   .     S
Si3520 O3650   1.620   .     S
Si3520 O3651   1.623   .     S
Si3521 O3616   1.622   .     S
Si3521 O3617   1.624   .     S
Si3521 O3626   1.622   .     S
Si3521 O4805   1.627   1_455 S
Si3522 O3617   1.621   .     S
Si3522 O3618   1.626   .     S
Si3522 O3630   1.623   .     S
Si3522 O3631   1.622   .     S
Si3523 O3619   1.615   .     S
Si3523 O3629   1.628   .     S
Si3523 O3744   1.633   .     S
Si3523 O3789   1.622   .     S
Si3524 O3619   1.630   .     S
Si3524 O3620   1.595   .     S
Si3524 O3624   1.635   .     S
Si3524 O3625   1.639   .     S
Si3525 O3621   1.609   .     S
Si3525 O3622   1.631   .     S
Si3525 O3649   1.637   .     S
Si3525 O3792   1.634   .     S
Si3526 O3622   1.615   .     S
Si3526 O3623   1.626   .     S
Si3526 O3626   1.625   .     S
Si3526 O4806   1.627   1_455 S
Si3527 O3623   1.627   .     S
Si3527 O3624   1.624   .     S
Si3527 O3632   1.628   .     S
Si3527 O3790   1.622   .     S
Si3528 O3635   1.627   .     S
Si3528 O3649   1.620   .     S
Si3528 O3650   1.628   .     S
Si3528 O3721   1.622   .     S
Si3529 O3635   1.614   .     S
Si3529 O3636   1.617   .     S
Si3529 O3640   1.640   .     S
Si3529 O3647   1.620   .     S
Si3530 O3631   1.619   .     S
Si3530 O3632   1.620   .     S
Si3530 O3637   1.621   .     S
Si3531 O3628   1.619   .     S
Si3531 O3629   1.621   .     S
Si3531 O3637   1.616   .     S
Si3532 O3638   1.619   .     S
Si3532 O3639   1.631   .     S
Si3532 O3648   1.619   .     S
Si3532 O3655   1.622   .     S
Si3533 O3639   1.611   .     S
Si3533 O3640   1.607   .     S
Si3533 O3652   1.700   .     S
Si3533 O3653   1.602   .     S
Si3534 O3641   1.622   .     S
Si3534 O3651   1.624   .     S
Si3534 O3722   1.631   .     S
Si3534 O4081   1.623   .     S
Si3535 O3641   1.616   .     S
Si3535 O3642   1.614   .     S
Si3535 O3646   1.625   .     S
Si3535 O3647   1.622   .     S
Si3536 O3630   1.619   .     S
Si3536 O3643   1.633   .     S
Si3536 O4083   1.618   .     S
Si3537 O3627   1.622   .     S
Si3537 O3643   1.632   .     S
Si3537 O4084   1.623   .     S
Si3538 O3644   1.622   .     S
Si3538 O3645   1.623   .     S
Si3538 O3648   1.628   .     S
Si3538 O3656   1.624   .     S
Si3539 O3645   1.628   .     S
Si3539 O3646   1.627   .     S
Si3539 O3654   1.627   .     S
Si3539 O4082   1.621   .     S
Si3540 O3657   1.621   .     S
Si3540 O3671   1.627   .     S
Si3540 O3672   1.626   .     S
Si3540 O3787   1.623   .     S
Si3541 O3657   1.620   .     S
Si3541 O3658   1.627   .     S
Si3541 O3662   1.618   .     S
Si3541 O3669   1.625   .     S
Si3542 O3658   1.625   .     S
Si3542 O3659   1.624   .     S
Si3542 O3697   1.624   .     S
Si3542 O3698   1.627   .     S
Si3543 O3659   1.624   .     S
Si3543 O3660   1.620   .     S
Si3543 O3694   1.624   .     S
Si3543 O3695   1.624   .     S
Si3544 O3660   1.629   .     S
Si3544 O3661   1.625   .     S
Si3544 O3670   1.628   .     S
Si3544 O4263   1.619   .     S
Si3545 O3661   1.623   .     S
Si3545 O3662   1.622   .     S
Si3545 O3674   1.624   .     S
Si3545 O3675   1.627   .     S
Si3546 O3663   1.621   .     S
Si3546 O3673   1.624   .     S
Si3546 O3788   1.628   .     S
Si3546 O3797   1.622   .     S
Si3547 O3663   1.618   .     S
Si3547 O3664   1.620   .     S
Si3547 O3668   1.625   .     S
Si3547 O3669   1.624   .     S
Si3548 O3664   1.625   .     S
Si3548 O3665   1.632   .     S
Si3548 O3696   1.621   .     S
Si3548 O3799   1.622   .     S
Si3549 O3665   1.633   .     S
Si3549 O3666   1.621   .     S
Si3549 O3693   1.622   .     S
Si3549 O3800   1.625   .     S
Si3550 O3666   1.624   .     S
Si3550 O3667   1.629   .     S
Si3550 O3670   1.623   .     S
Si3550 O4264   1.624   .     S
Si3551 O3667   1.628   .     S
Si3551 O3668   1.628   .     S
Si3551 O3676   1.627   .     S
Si3551 O3798   1.625   .     S
Si3552 O3679   1.621   .     S
Si3552 O3693   1.626   .     S
Si3552 O3694   1.627   .     S
Si3552 O3765   1.624   .     S
Si3553 O3679   1.620   .     S
Si3553 O3680   1.624   .     S
Si3553 O3684   1.622   .     S
Si3553 O3691   1.622   .     S
Si3554 O3675   1.626   .     S
Si3554 O3676   1.627   .     S
Si3554 O3681   1.625   .     S
Si3554 O164    1.622   1_556 S
Si3555 O3672   1.624   .     S
Si3555 O3673   1.622   .     S
Si3555 O3681   1.620   .     S
Si3555 O166    1.618   1_556 S
Si3556 O3682   1.625   .     S
Si3556 O3683   1.622   .     S
Si3556 O3692   1.627   .     S
Si3556 O3699   1.621   .     S
Si3557 O3683   1.622   .     S
Si3557 O3684   1.623   .     S
Si3557 O3696   1.624   .     S
Si3557 O3697   1.626   .     S
Si3558 O3685   1.623   .     S
Si3558 O3695   1.630   .     S
Si3558 O3766   1.628   .     S
Si3558 O3801   1.620   .     S
Si3559 O3685   1.617   .     S
Si3559 O3686   1.623   .     S
Si3559 O3690   1.628   .     S
Si3559 O3691   1.621   .     S
Si3560 O3674   1.622   .     S
Si3560 O3687   1.635   .     S
Si3560 O3803   1.625   .     S
Si3560 O170    1.624   1_556 S
Si3561 O3671   1.624   .     S
Si3561 O3687   1.632   .     S
Si3561 O3804   1.625   .     S
Si3561 O172    1.622   1_556 S
Si3562 O3688   1.626   .     S
Si3562 O3689   1.629   .     S
Si3562 O3692   1.622   .     S
Si3562 O3700   1.625   .     S
Si3563 O3689   1.630   .     S
Si3563 O3690   1.625   .     S
Si3563 O3698   1.627   .     S
Si3563 O3802   1.621   .     S
Si3564 O3655   1.627   .     S
Si3564 O3701   1.620   .     S
Si3564 O3715   1.627   .     S
Si3564 O3716   1.623   .     S
Si3565 O3701   1.624   .     S
Si3565 O3702   1.621   .     S
Si3565 O3706   1.619   .     S
Si3565 O3713   1.624   .     S
Si3566 O3702   1.623   .     S
Si3566 O3703   1.623   .     S
Si3566 O3741   1.624   .     S
Si3566 O3742   1.624   .     S
Si3567 O3703   1.622   .     S
Si3567 O3704   1.620   .     S
Si3567 O3738   1.624   .     S
Si3567 O3739   1.622   .     S
Si3568 O3704   1.625   .     S
Si3568 O3705   1.624   .     S
Si3568 O3714   1.630   .     S
Si3568 O4307   1.618   .     S
Si3569 O3705   1.621   .     S
Si3569 O3706   1.623   .     S
Si3569 O3718   1.624   .     S
Si3569 O3719   1.625   .     S
Si3570 O3656   1.628   .     S
Si3570 O3707   1.624   .     S
Si3570 O3717   1.625   .     S
Si3570 O4085   1.619   .     S
Si3571 O3707   1.622   .     S
Si3571 O3708   1.620   .     S
Si3571 O3712   1.625   .     S
Si3571 O3713   1.623   .     S
Si3572 O3708   1.625   .     S
Si3572 O3709   1.631   .     S
Si3572 O3740   1.621   .     S
Si3572 O4087   1.623   .     S
Si3573 O3709   1.632   .     S
Si3573 O3710   1.621   .     S
Si3573 O3737   1.623   .     S
Si3573 O4088   1.625   .     S
Si3574 O3710   1.624   .     S
Si3574 O3711   1.627   .     S
Si3574 O3714   1.625   .     S
Si3574 O4308   1.626   .     S
Si3575 O3711   1.627   .     S
Si3575 O3712   1.628   .     S
Si3575 O3720   1.627   .     S
Si3575 O4086   1.623   .     S
Si3576 O3633   1.625   .     S
Si3576 O3723   1.620   .     S
Si3576 O3737   1.627   .     S
Si3576 O3738   1.626   .     S
Si3577 O3723   1.619   .     S
Si3577 O3724   1.625   .     S
Si3577 O3728   1.623   .     S
Si3577 O3735   1.623   .     S
Si3578 O3719   1.623   .     S
Si3578 O3720   1.626   .     S
Si3578 O3725   1.624   .     S
Si3578 O208    1.623   1_556 S
Si3579 O3716   1.623   .     S
Si3579 O3717   1.622   .     S
Si3579 O3725   1.619   .     S
Si3579 O210    1.621   1_556 S
Si3580 O3727   1.621   .     S
Si3580 O3728   1.624   .     S
Si3580 O3740   1.623   .     S
Si3580 O3741   1.625   .     S
Si3581 O3634   1.625   .     S
Si3581 O3729   1.624   .     S
Si3581 O3739   1.629   .     S
Si3581 O3801   1.621   .     S
Si3582 O3729   1.618   .     S
Si3582 O3730   1.619   .     S
Si3582 O3734   1.628   .     S
Si3582 O3735   1.623   .     S
Si3583 O3718   1.622   .     S
Si3583 O3731   1.635   .     S
Si3583 O3803   1.623   .     S
Si3583 O214    1.621   1_556 S
Si3584 O3715   1.625   .     S
Si3584 O3731   1.630   .     S
Si3584 O3804   1.624   .     S
Si3584 O216    1.622   1_556 S
Si3585 O3733   1.626   .     S
Si3585 O3734   1.628   .     S
Si3585 O3742   1.623   .     S
Si3585 O3802   1.623   .     S
Si3586 O3699   1.621   .     S
Si3586 O3745   1.627   .     S
Si3586 O3759   1.626   .     S
Si3586 O3760   1.621   .     S
Si3587 O3745   1.629   .     S
Si3587 O3746   1.622   .     S
Si3587 O3750   1.626   .     S
Si3587 O3757   1.625   .     S
Si3588 O3746   1.624   .     S
Si3588 O3747   1.623   .     S
Si3588 O3785   1.618   .     S
Si3588 O3786   1.628   .     S
Si3589 O3747   1.621   .     S
Si3589 O3748   1.621   .     S
Si3589 O3782   1.621   .     S
Si3589 O3783   1.627   .     S
Si3590 O3748   1.627   .     S
Si3590 O3749   1.624   .     S
Si3590 O3758   1.626   .     S
Si3590 O4937   1.626   1_455 S
Si3591 O3749   1.623   .     S
Si3591 O3750   1.626   .     S
Si3591 O3762   1.625   .     S
Si3591 O3763   1.620   .     S
Si3592 O3700   1.633   .     S
Si3592 O3751   1.623   .     S
Si3592 O3761   1.626   .     S
Si3592 O3789   1.623   .     S
Si3593 O3751   1.627   .     S
Si3593 O3752   1.608   .     S
Si3593 O3756   1.627   .     S
Si3593 O3757   1.626   .     S
Si3594 O3752   1.631   .     S
Si3594 O3753   1.639   .     S
Si3594 O3784   1.629   .     S
Si3594 O3791   1.596   .     S
Si3595 O3753   1.625   .     S
Si3595 O3754   1.629   .     S
Si3595 O3781   1.629   .     S
Si3595 O3792   1.621   .     S
Si3596 O3754   1.621   .     S
Si3596 O3755   1.628   .     S
Si3596 O3758   1.627   .     S
Si3596 O4938   1.629   1_455 S
Si3597 O3755   1.629   .     S
Si3597 O3756   1.628   .     S
Si3597 O3764   1.628   .     S
Si3597 O3790   1.623   .     S
Si3598 O3677   1.624   .     S
Si3598 O3767   1.625   .     S
Si3598 O3781   1.624   .     S
Si3598 O3782   1.625   .     S
Si3599 O3767   1.622   .     S
Si3599 O3768   1.625   .     S
Si3599 O3772   1.623   .     S
Si3599 O3779   1.627   .     S
Si3600 O3763   1.620   .     S
Si3600 O3764   1.625   .     S
Si3601 O3760   1.619   .     S
Si3601 O3761   1.623   .     S
Si3602 O3770   1.622   .     S
Si3602 O3771   1.618   .     S
Si3602 O3780   1.627   .     S
Si3602 O3787   1.628   .     S
Si3603 O3771   1.625   .     S
Si3603 O3772   1.628   .     S
Si3603 O3784   1.614   .     S
Si3603 O3785   1.624   .     S
Si3604 O3678   1.629   .     S
Si3604 O3773   1.624   .     S
Si3604 O3783   1.629   .     S
Si3604 O3793   1.623   .     S
Si3605 O3773   1.621   .     S
Si3605 O3774   1.619   .     S
Si3605 O3778   1.628   .     S
Si3605 O3779   1.622   .     S
Si3606 O3762   1.621   .     S
Si3606 O3775   1.634   .     S
Si3606 O3795   1.620   .     S
Si3607 O3759   1.621   .     S
Si3607 O3775   1.631   .     S
Si3607 O3796   1.627   .     S
Si3608 O3776   1.625   .     S
Si3608 O3777   1.624   .     S
Si3608 O3780   1.623   .     S
Si3608 O3788   1.627   .     S
Si3609 O3777   1.627   .     S
Si3609 O3778   1.630   .     S
Si3609 O3786   1.624   .     S
Si3609 O3794   1.626   .     S
Si3610 O3726   1.629   .     S
Si3610 O3727   1.621   .     S
Si3610 O3736   1.628   .     S
Si3610 O3743   1.621   .     S
Si3611 O3732   1.624   .     S
Si3611 O3733   1.625   .     S
Si3611 O3736   1.624   .     S
Si3611 O3744   1.626   .     S
Al3612 O3620   1.722   .     S
Al3612 O3621   1.721   .     S
Al3612 O3652   1.890   .     S
Al3612 O3791   1.711   .     S
O3633  Si4107  1.627   .     S
O3634  Si4112  1.627   .     S
O3636  Si14    1.625   1_556 S
O3638  Si15    1.627   1_556 S
O3642  Si20    1.620   1_556 S
O3644  Si21    1.627   1_556 S
O3677  Si4716  1.619   1_455 S
O3678  Si4722  1.624   1_455 S
O3721  Si4740  1.618   1_455 S
O3722  Si4746  1.626   1_455 S
O3765  Si4176  1.626   .     S
O3766  Si4182  1.629   .     S
O3768  Si84    1.624   1_556 S
O3769  Si84    1.623   1_556 S
O3769  Si85    1.618   1_556 S
O3770  Si85    1.619   1_556 S
O3774  Si90    1.622   1_556 S
O3776  Si91    1.622   1_556 S
O3793  Si3822  1.623   1_545 S
O3794  Si3827  1.621   1_545 S
O3795  Si3824  1.618   1_545 S
O3796  Si3825  1.624   1_545 S
O3797  Si3858  1.619   1_545 S
O3798  Si3863  1.623   1_545 S
O3799  Si3860  1.623   1_545 S
O3800  Si3861  1.625   1_545 S
Si3805 O3901   1.625   .     S
Si3805 O3915   1.629   .     S
Si3805 O3916   1.623   .     S
Si3805 O4031   1.620   .     S
Si3806 O3901   1.629   .     S
Si3806 O3902   1.628   .     S
Si3806 O3906   1.625   .     S
Si3806 O3913   1.624   .     S
Si3807 O3902   1.622   .     S
Si3807 O3903   1.615   .     S
Si3807 O3941   1.635   .     S
Si3807 O3942   1.625   .     S
Si3808 O3903   1.622   .     S
Si3808 O3904   1.615   .     S
Si3808 O3938   1.620   .     S
Si3808 O3939   1.623   .     S
Si3809 O3904   1.622   .     S
Si3809 O3905   1.624   .     S
Si3809 O3914   1.622   .     S
Si3809 O5093   1.627   1_455 S
Si3810 O3905   1.621   .     S
Si3810 O3906   1.626   .     S
Si3810 O3918   1.623   .     S
Si3810 O3919   1.622   .     S
Si3811 O3907   1.615   .     S
Si3811 O3917   1.628   .     S
Si3811 O4032   1.633   .     S
Si3811 O4077   1.622   .     S
Si3812 O3907   1.630   .     S
Si3812 O3908   1.595   .     S
Si3812 O3912   1.635   .     S
Si3812 O3913   1.639   .     S
Si3813 O3909   1.609   .     S
Si3813 O3910   1.631   .     S
Si3813 O3937   1.637   .     S
Si3813 O4080   1.634   .     S
Si3814 O3910   1.615   .     S
Si3814 O3911   1.626   .     S
Si3814 O3914   1.625   .     S
Si3814 O5094   1.627   1_455 S
Si3815 O3911   1.627   .     S
Si3815 O3912   1.624   .     S
Si3815 O3920   1.628   .     S
Si3815 O4078   1.622   .     S
Si3816 O3923   1.627   .     S
Si3816 O3937   1.620   .     S
Si3816 O3938   1.628   .     S
Si3816 O4009   1.622   .     S
Si3817 O3923   1.614   .     S
Si3817 O3924   1.617   .     S
Si3817 O3928   1.640   .     S
Si3817 O3935   1.620   .     S
Si3818 O3919   1.619   .     S
Si3818 O3920   1.620   .     S
Si3818 O3925   1.621   .     S
Si3819 O3916   1.619   .     S
Si3819 O3917   1.621   .     S
Si3819 O3925   1.616   .     S
Si3820 O3926   1.619   .     S
Si3820 O3927   1.631   .     S
Si3820 O3936   1.619   .     S
Si3820 O3943   1.622   .     S
Si3821 O3927   1.611   .     S
Si3821 O3928   1.607   .     S
Si3821 O3940   1.700   .     S
Si3821 O3941   1.602   .     S
Si3822 O3929   1.622   .     S
Si3822 O3939   1.624   .     S
Si3822 O4010   1.631   .     S
Si3822 O3793   1.623   1_565 S
Si3823 O3929   1.616   .     S
Si3823 O3930   1.614   .     S
Si3823 O3934   1.625   .     S
Si3823 O3935   1.622   .     S
Si3824 O3918   1.619   .     S
Si3824 O3931   1.633   .     S
Si3824 O3795   1.618   1_565 S
Si3825 O3915   1.622   .     S
Si3825 O3931   1.632   .     S
Si3825 O3796   1.624   1_565 S
Si3826 O3932   1.622   .     S
Si3826 O3933   1.623   .     S
Si3826 O3936   1.628   .     S
Si3826 O3944   1.624   .     S
Si3827 O3933   1.628   .     S
Si3827 O3934   1.627   .     S
Si3827 O3942   1.627   .     S
Si3827 O3794   1.621   1_565 S
Si3828 O3945   1.621   .     S
Si3828 O3959   1.627   .     S
Si3828 O3960   1.626   .     S
Si3828 O4075   1.623   .     S
Si3829 O3945   1.620   .     S
Si3829 O3946   1.627   .     S
Si3829 O3950   1.618   .     S
Si3829 O3957   1.625   .     S
Si3830 O3946   1.625   .     S
Si3830 O3947   1.624   .     S
Si3830 O3985   1.624   .     S
Si3830 O3986   1.627   .     S
Si3831 O3947   1.624   .     S
Si3831 O3948   1.620   .     S
Si3831 O3982   1.624   .     S
Si3831 O3983   1.624   .     S
Si3832 O3948   1.629   .     S
Si3832 O3949   1.625   .     S
Si3832 O3958   1.628   .     S
Si3832 O4551   1.619   .     S
Si3833 O3949   1.623   .     S
Si3833 O3950   1.622   .     S
Si3833 O3962   1.624   .     S
Si3833 O3963   1.627   .     S
Si3834 O3951   1.621   .     S
Si3834 O3961   1.624   .     S
Si3834 O4076   1.628   .     S
Si3834 O4085   1.622   .     S
Si3835 O3951   1.618   .     S
Si3835 O3952   1.620   .     S
Si3835 O3956   1.625   .     S
Si3835 O3957   1.624   .     S
Si3836 O3952   1.625   .     S
Si3836 O3953   1.632   .     S
Si3836 O3984   1.621   .     S
Si3836 O4087   1.622   .     S
Si3837 O3953   1.633   .     S
Si3837 O3954   1.621   .     S
Si3837 O3981   1.622   .     S
Si3837 O4088   1.625   .     S
Si3838 O3954   1.624   .     S
Si3838 O3955   1.629   .     S
Si3838 O3958   1.623   .     S
Si3838 O4552   1.624   .     S
Si3839 O3955   1.628   .     S
Si3839 O3956   1.628   .     S
Si3839 O3964   1.627   .     S
Si3839 O4086   1.625   .     S
Si3840 O3967   1.621   .     S
Si3840 O3981   1.626   .     S
Si3840 O3982   1.627   .     S
Si3840 O4053   1.624   .     S
Si3841 O3967   1.620   .     S
Si3841 O3968   1.624   .     S
Si3841 O3972   1.622   .     S
Si3841 O3979   1.622   .     S
Si3842 O3963   1.626   .     S
Si3842 O3964   1.627   .     S
Si3842 O3969   1.625   .     S
Si3842 O452    1.622   1_556 S
Si3843 O3960   1.624   .     S
Si3843 O3961   1.622   .     S
Si3843 O3969   1.620   .     S
Si3843 O454    1.618   1_556 S
Si3844 O3970   1.625   .     S
Si3844 O3971   1.622   .     S
Si3844 O3980   1.627   .     S
Si3844 O3987   1.621   .     S
Si3845 O3971   1.622   .     S
Si3845 O3972   1.623   .     S
Si3845 O3984   1.624   .     S
Si3845 O3985   1.626   .     S
Si3846 O3973   1.623   .     S
Si3846 O3983   1.630   .     S
Si3846 O4054   1.628   .     S
Si3846 O4089   1.620   .     S
Si3847 O3973   1.617   .     S
Si3847 O3974   1.623   .     S
Si3847 O3978   1.628   .     S
Si3847 O3979   1.621   .     S
Si3848 O3962   1.622   .     S
Si3848 O3975   1.635   .     S
Si3848 O4091   1.625   .     S
Si3848 O458    1.624   1_556 S
Si3849 O3959   1.624   .     S
Si3849 O3975   1.632   .     S
Si3849 O4092   1.625   .     S
Si3849 O460    1.622   1_556 S
Si3850 O3976   1.626   .     S
Si3850 O3977   1.629   .     S
Si3850 O3980   1.622   .     S
Si3850 O3988   1.625   .     S
Si3851 O3977   1.630   .     S
Si3851 O3978   1.625   .     S
Si3851 O3986   1.627   .     S
Si3851 O4090   1.621   .     S
Si3852 O3943   1.627   .     S
Si3852 O3989   1.620   .     S
Si3852 O4003   1.627   .     S
Si3852 O4004   1.623   .     S
Si3853 O3989   1.624   .     S
Si3853 O3990   1.621   .     S
Si3853 O3994   1.619   .     S
Si3853 O4001   1.624   .     S
Si3854 O3990   1.623   .     S
Si3854 O3991   1.623   .     S
Si3854 O4029   1.624   .     S
Si3854 O4030   1.624   .     S
Si3855 O3991   1.622   .     S
Si3855 O3992   1.620   .     S
Si3855 O4026   1.624   .     S
Si3855 O4027   1.622   .     S
Si3856 O3992   1.625   .     S
Si3856 O3993   1.624   .     S
Si3856 O4002   1.630   .     S
Si3856 O4595   1.618   .     S
Si3857 O3993   1.621   .     S
Si3857 O3994   1.623   .     S
Si3857 O4006   1.624   .     S
Si3857 O4007   1.625   .     S
Si3858 O3944   1.628   .     S
Si3858 O3995   1.624   .     S
Si3858 O4005   1.625   .     S
Si3858 O3797   1.619   1_565 S
Si3859 O3995   1.622   .     S
Si3859 O3996   1.620   .     S
Si3859 O4000   1.625   .     S
Si3859 O4001   1.623   .     S
Si3860 O3996   1.625   .     S
Si3860 O3997   1.631   .     S
Si3860 O4028   1.621   .     S
Si3860 O3799   1.623   1_565 S
Si3861 O3997   1.632   .     S
Si3861 O3998   1.621   .     S
Si3861 O4025   1.623   .     S
Si3861 O3800   1.625   1_565 S
Si3862 O3998   1.624   .     S
Si3862 O3999   1.627   .     S
Si3862 O4002   1.625   .     S
Si3862 O4596   1.626   .     S
Si3863 O3999   1.627   .     S
Si3863 O4000   1.628   .     S
Si3863 O4008   1.627   .     S
Si3863 O3798   1.623   1_565 S
Si3864 O3921   1.625   .     S
Si3864 O4011   1.620   .     S
Si3864 O4025   1.627   .     S
Si3864 O4026   1.626   .     S
Si3865 O4011   1.619   .     S
Si3865 O4012   1.625   .     S
Si3865 O4016   1.623   .     S
Si3865 O4023   1.623   .     S
Si3866 O4007   1.623   .     S
Si3866 O4008   1.626   .     S
Si3866 O4013   1.624   .     S
Si3866 O496    1.623   1_556 S
Si3867 O4004   1.623   .     S
Si3867 O4005   1.622   .     S
Si3867 O4013   1.619   .     S
Si3867 O498    1.621   1_556 S
Si3868 O4015   1.621   .     S
Si3868 O4016   1.624   .     S
Si3868 O4028   1.623   .     S
Si3868 O4029   1.625   .     S
Si3869 O3922   1.625   .     S
Si3869 O4017   1.624   .     S
Si3869 O4027   1.629   .     S
Si3869 O4089   1.621   .     S
Si3870 O4017   1.618   .     S
Si3870 O4018   1.619   .     S
Si3870 O4022   1.628   .     S
Si3870 O4023   1.623   .     S
Si3871 O4006   1.622   .     S
Si3871 O4019   1.635   .     S
Si3871 O4091   1.623   .     S
Si3871 O502    1.621   1_556 S
Si3872 O4003   1.625   .     S
Si3872 O4019   1.630   .     S
Si3872 O4092   1.624   .     S
Si3872 O504    1.622   1_556 S
Si3873 O4021   1.626   .     S
Si3873 O4022   1.628   .     S
Si3873 O4030   1.623   .     S
Si3873 O4090   1.623   .     S
Si3874 O3987   1.621   .     S
Si3874 O4033   1.627   .     S
Si3874 O4047   1.626   .     S
Si3874 O4048   1.621   .     S
Si3875 O4033   1.629   .     S
Si3875 O4034   1.622   .     S
Si3875 O4038   1.626   .     S
Si3875 O4045   1.625   .     S
Si3876 O4034   1.624   .     S
Si3876 O4035   1.623   .     S
Si3876 O4073   1.618   .     S
Si3876 O4074   1.628   .     S
Si3877 O4035   1.621   .     S
Si3877 O4036   1.621   .     S
Si3877 O4070   1.621   .     S
Si3877 O4071   1.627   .     S
Si3878 O4036   1.627   .     S
Si3878 O4037   1.624   .     S
Si3878 O4046   1.626   .     S
Si3878 O5225   1.626   1_455 S
Si3879 O4037   1.623   .     S
Si3879 O4038   1.626   .     S
Si3879 O4050   1.625   .     S
Si3879 O4051   1.620   .     S
Si3880 O3988   1.633   .     S
Si3880 O4039   1.623   .     S
Si3880 O4049   1.626   .     S
Si3880 O4077   1.623   .     S
Si3881 O4039   1.627   .     S
Si3881 O4040   1.608   .     S
Si3881 O4044   1.627   .     S
Si3881 O4045   1.626   .     S
Si3882 O4040   1.631   .     S
Si3882 O4041   1.639   .     S
Si3882 O4072   1.629   .     S
Si3882 O4079   1.596   .     S
Si3883 O4041   1.625   .     S
Si3883 O4042   1.629   .     S
Si3883 O4069   1.629   .     S
Si3883 O4080   1.621   .     S
Si3884 O4042   1.621   .     S
Si3884 O4043   1.628   .     S
Si3884 O4046   1.627   .     S
Si3884 O5226   1.629   1_455 S
Si3885 O4043   1.629   .     S
Si3885 O4044   1.628   .     S
Si3885 O4052   1.628   .     S
Si3885 O4078   1.623   .     S
Si3886 O3965   1.624   .     S
Si3886 O4055   1.625   .     S
Si3886 O4069   1.624   .     S
Si3886 O4070   1.625   .     S
Si3887 O4055   1.622   .     S
Si3887 O4056   1.625   .     S
Si3887 O4060   1.623   .     S
Si3887 O4067   1.627   .     S
Si3888 O4051   1.620   .     S
Si3888 O4052   1.625   .     S
Si3889 O4048   1.619   .     S
Si3889 O4049   1.623   .     S
Si3890 O4058   1.622   .     S
Si3890 O4059   1.618   .     S
Si3890 O4068   1.627   .     S
Si3890 O4075   1.628   .     S
Si3891 O4059   1.625   .     S
Si3891 O4060   1.628   .     S
Si3891 O4072   1.614   .     S
Si3891 O4073   1.624   .     S
Si3892 O3966   1.629   .     S
Si3892 O4061   1.624   .     S
Si3892 O4071   1.629   .     S
Si3892 O4081   1.623   .     S
Si3893 O4061   1.621   .     S
Si3893 O4062   1.619   .     S
Si3893 O4066   1.628   .     S
Si3893 O4067   1.622   .     S
Si3894 O4050   1.621   .     S
Si3894 O4063   1.634   .     S
Si3894 O4083   1.620   .     S
Si3895 O4047   1.621   .     S
Si3895 O4063   1.631   .     S
Si3895 O4084   1.628   .     S
Si3896 O4064   1.625   .     S
Si3896 O4065   1.624   .     S
Si3896 O4068   1.623   .     S
Si3896 O4076   1.627   .     S
Si3897 O4065   1.627   .     S
Si3897 O4066   1.630   .     S
Si3897 O4074   1.624   .     S
Si3897 O4082   1.626   .     S
Si3898 O4014   1.629   .     S
Si3898 O4015   1.621   .     S
Si3898 O4024   1.628   .     S
Si3898 O4031   1.621   .     S
Si3899 O4020   1.624   .     S
Si3899 O4021   1.625   .     S
Si3899 O4024   1.624   .     S
Si3899 O4032   1.626   .     S
Al3900 O3908   1.722   .     S
Al3900 O3909   1.721   .     S
Al3900 O3940   1.890   .     S
Al3900 O4079   1.711   .     S
O3921  Si4395  1.627   .     S
O3922  Si4400  1.627   .     S
O3924  Si302   1.625   1_556 S
O3926  Si303   1.627   1_556 S
O3930  Si308   1.620   1_556 S
O3932  Si309   1.627   1_556 S
O3940  H4093   0.999   .     S
O3965  Si5004  1.619   1_455 S
O3966  Si5010  1.624   1_455 S
O4009  Si5028  1.618   1_455 S
O4010  Si5034  1.626   1_455 S
O4053  Si4464  1.626   .     S
O4054  Si4470  1.629   .     S
O4056  Si372   1.624   1_556 S
O4057  Si372   1.623   1_556 S
O4057  Si373   1.618   1_556 S
O4058  Si373   1.619   1_556 S
O4062  Si378   1.622   1_556 S
O4064  Si379   1.622   1_556 S
H4094  C4100   1.089   .     S
H4095  C4101   1.087   .     S
H4096  C4098   1.090   .     S
H4097  C4099   1.088   .     S
C4098  C4099   1.373   .     D
C4098  C4100   1.429   .     S
C4099  S4102   1.723   .     S
C4100  C4101   1.372   .     D
C4101  S4102   1.722   .     S
Si4103 O4199   1.625   .     S
Si4103 O4213   1.629   .     S
Si4103 O4214   1.623   .     S
Si4103 O4329   1.620   .     S
Si4104 O4199   1.629   .     S
Si4104 O4200   1.628   .     S
Si4104 O4204   1.625   .     S
Si4104 O4211   1.624   .     S
Si4105 O4200   1.622   .     S
Si4105 O4201   1.615   .     S
Si4105 O4239   1.635   .     S
Si4105 O4240   1.625   .     S
Si4106 O4201   1.622   .     S
Si4106 O4202   1.615   .     S
Si4106 O4236   1.620   .     S
Si4106 O4237   1.623   .     S
Si4107 O4202   1.622   .     S
Si4107 O4203   1.624   .     S
Si4107 O4212   1.622   .     S
Si4108 O4203   1.621   .     S
Si4108 O4204   1.626   .     S
Si4108 O4216   1.623   .     S
Si4108 O4217   1.622   .     S
Si4109 O4205   1.615   .     S
Si4109 O4215   1.628   .     S
Si4109 O4330   1.633   .     S
Si4109 O4375   1.622   .     S
Si4110 O4205   1.630   .     S
Si4110 O4206   1.595   .     S
Si4110 O4210   1.635   .     S
Si4110 O4211   1.639   .     S
Si4111 O4207   1.609   .     S
Si4111 O4208   1.631   .     S
Si4111 O4235   1.637   .     S
Si4111 O4378   1.634   .     S
Si4112 O4208   1.615   .     S
Si4112 O4209   1.626   .     S
Si4112 O4212   1.625   .     S
Si4113 O4209   1.627   .     S
Si4113 O4210   1.624   .     S
Si4113 O4218   1.628   .     S
Si4113 O4376   1.622   .     S
Si4114 O4221   1.627   .     S
Si4114 O4235   1.620   .     S
Si4114 O4236   1.628   .     S
Si4114 O4307   1.622   .     S
Si4115 O4221   1.614   .     S
Si4115 O4222   1.617   .     S
Si4115 O4226   1.640   .     S
Si4115 O4233   1.620   .     S
Si4116 O4217   1.619   .     S
Si4116 O4218   1.620   .     S
Si4116 O4223   1.621   .     S
Si4117 O4214   1.619   .     S
Si4117 O4215   1.621   .     S
Si4117 O4223   1.616   .     S
Si4118 O4224   1.619   .     S
Si4118 O4225   1.631   .     S
Si4118 O4234   1.619   .     S
Si4118 O4241   1.622   .     S
Si4119 O4225   1.611   .     S
Si4119 O4226   1.607   .     S
Si4119 O4238   1.700   .     S
Si4119 O4239   1.602   .     S
Si4120 O4227   1.622   .     S
Si4120 O4237   1.624   .     S
Si4120 O4308   1.631   .     S
Si4120 O4667   1.623   .     S
Si4121 O4227   1.616   .     S
Si4121 O4228   1.614   .     S
Si4121 O4232   1.625   .     S
Si4121 O4233   1.622   .     S
Si4122 O4216   1.619   .     S
Si4122 O4229   1.633   .     S
Si4122 O4669   1.618   .     S
Si4123 O4213   1.622   .     S
Si4123 O4229   1.632   .     S
Si4123 O4670   1.623   .     S
Si4124 O4230   1.622   .     S
Si4124 O4231   1.623   .     S
Si4124 O4234   1.628   .     S
Si4124 O4242   1.624   .     S
Si4125 O4231   1.628   .     S
Si4125 O4232   1.627   .     S
Si4125 O4240   1.627   .     S
Si4125 O4668   1.621   .     S
Si4126 O4243   1.621   .     S
Si4126 O4257   1.627   .     S
Si4126 O4258   1.626   .     S
Si4126 O4373   1.623   .     S
Si4127 O4243   1.620   .     S
Si4127 O4244   1.627   .     S
Si4127 O4248   1.618   .     S
Si4127 O4255   1.625   .     S
Si4128 O4244   1.625   .     S
Si4128 O4245   1.624   .     S
Si4128 O4283   1.624   .     S
Si4128 O4284   1.627   .     S
Si4129 O4245   1.624   .     S
Si4129 O4246   1.620   .     S
Si4129 O4280   1.624   .     S
Si4129 O4281   1.624   .     S
Si4130 O4246   1.629   .     S
Si4130 O4247   1.625   .     S
Si4130 O4256   1.628   .     S
Si4130 O4849   1.619   .     S
Si4131 O4247   1.623   .     S
Si4131 O4248   1.622   .     S
Si4131 O4260   1.624   .     S
Si4131 O4261   1.627   .     S
Si4132 O4249   1.621   .     S
Si4132 O4259   1.624   .     S
Si4132 O4374   1.628   .     S
Si4132 O4383   1.622   .     S
Si4133 O4249   1.618   .     S
Si4133 O4250   1.620   .     S
Si4133 O4254   1.625   .     S
Si4133 O4255   1.624   .     S
Si4134 O4250   1.625   .     S
Si4134 O4251   1.632   .     S
Si4134 O4282   1.621   .     S
Si4134 O4385   1.622   .     S
Si4135 O4251   1.633   .     S
Si4135 O4252   1.621   .     S
Si4135 O4279   1.622   .     S
Si4135 O4386   1.625   .     S
Si4136 O4252   1.624   .     S
Si4136 O4253   1.629   .     S
Si4136 O4256   1.623   .     S
Si4136 O4850   1.624   .     S
Si4137 O4253   1.628   .     S
Si4137 O4254   1.628   .     S
Si4137 O4262   1.627   .     S
Si4137 O4384   1.625   .     S
Si4138 O4265   1.621   .     S
Si4138 O4279   1.626   .     S
Si4138 O4280   1.627   .     S
Si4138 O4351   1.624   .     S
Si4139 O4265   1.620   .     S
Si4139 O4266   1.624   .     S
Si4139 O4270   1.622   .     S
Si4139 O4277   1.622   .     S
Si4140 O4261   1.626   .     S
Si4140 O4262   1.627   .     S
Si4140 O4267   1.625   .     S
Si4140 O750    1.622   1_556 S
Si4141 O4258   1.624   .     S
Si4141 O4259   1.622   .     S
Si4141 O4267   1.620   .     S
Si4141 O752    1.618   1_556 S
Si4142 O4268   1.625   .     S
Si4142 O4269   1.622   .     S
Si4142 O4278   1.627   .     S
Si4142 O4285   1.621   .     S
Si4143 O4269   1.622   .     S
Si4143 O4270   1.623   .     S
Si4143 O4282   1.624   .     S
Si4143 O4283   1.626   .     S
Si4144 O4271   1.623   .     S
Si4144 O4281   1.630   .     S
Si4144 O4352   1.628   .     S
Si4144 O4387   1.620   .     S
Si4145 O4271   1.617   .     S
Si4145 O4272   1.623   .     S
Si4145 O4276   1.628   .     S
Si4145 O4277   1.621   .     S
Si4146 O4260   1.622   .     S
Si4146 O4273   1.635   .     S
Si4146 O4389   1.625   .     S
Si4146 O756    1.624   1_556 S
Si4147 O4257   1.624   .     S
Si4147 O4273   1.632   .     S
Si4147 O4390   1.625   .     S
Si4147 O758    1.622   1_556 S
Si4148 O4274   1.626   .     S
Si4148 O4275   1.629   .     S
Si4148 O4278   1.622   .     S
Si4148 O4286   1.625   .     S
Si4149 O4275   1.630   .     S
Si4149 O4276   1.625   .     S
Si4149 O4284   1.627   .     S
Si4149 O4388   1.621   .     S
Si4150 O4241   1.627   .     S
Si4150 O4287   1.620   .     S
Si4150 O4301   1.627   .     S
Si4150 O4302   1.623   .     S
Si4151 O4287   1.624   .     S
Si4151 O4288   1.621   .     S
Si4151 O4292   1.619   .     S
Si4151 O4299   1.624   .     S
Si4152 O4288   1.623   .     S
Si4152 O4289   1.623   .     S
Si4152 O4327   1.624   .     S
Si4152 O4328   1.624   .     S
Si4153 O4289   1.622   .     S
Si4153 O4290   1.620   .     S
Si4153 O4324   1.624   .     S
Si4153 O4325   1.622   .     S
Si4154 O4290   1.625   .     S
Si4154 O4291   1.624   .     S
Si4154 O4300   1.630   .     S
Si4154 O4893   1.618   .     S
Si4155 O4291   1.621   .     S
Si4155 O4292   1.623   .     S
Si4155 O4304   1.624   .     S
Si4155 O4305   1.625   .     S
Si4156 O4242   1.628   .     S
Si4156 O4293   1.624   .     S
Si4156 O4303   1.625   .     S
Si4156 O4671   1.619   .     S
Si4157 O4293   1.622   .     S
Si4157 O4294   1.620   .     S
Si4157 O4298   1.625   .     S
Si4157 O4299   1.623   .     S
Si4158 O4294   1.625   .     S
Si4158 O4295   1.631   .     S
Si4158 O4326   1.621   .     S
Si4158 O4673   1.623   .     S
Si4159 O4295   1.632   .     S
Si4159 O4296   1.621   .     S
Si4159 O4323   1.623   .     S
Si4159 O4674   1.625   .     S
Si4160 O4296   1.624   .     S
Si4160 O4297   1.627   .     S
Si4160 O4300   1.625   .     S
Si4160 O4894   1.626   .     S
Si4161 O4297   1.627   .     S
Si4161 O4298   1.628   .     S
Si4161 O4306   1.627   .     S
Si4161 O4672   1.623   .     S
Si4162 O4219   1.625   .     S
Si4162 O4309   1.620   .     S
Si4162 O4323   1.627   .     S
Si4162 O4324   1.626   .     S
Si4163 O4309   1.619   .     S
Si4163 O4310   1.625   .     S
Si4163 O4314   1.623   .     S
Si4163 O4321   1.623   .     S
Si4164 O4305   1.623   .     S
Si4164 O4306   1.626   .     S
Si4164 O4311   1.624   .     S
Si4164 O794    1.623   1_556 S
Si4165 O4302   1.623   .     S
Si4165 O4303   1.622   .     S
Si4165 O4311   1.619   .     S
Si4165 O796    1.621   1_556 S
Si4166 O4313   1.621   .     S
Si4166 O4314   1.624   .     S
Si4166 O4326   1.623   .     S
Si4166 O4327   1.625   .     S
Si4167 O4220   1.625   .     S
Si4167 O4315   1.624   .     S
Si4167 O4325   1.629   .     S
Si4167 O4387   1.621   .     S
Si4168 O4315   1.618   .     S
Si4168 O4316   1.619   .     S
Si4168 O4320   1.628   .     S
Si4168 O4321   1.623   .     S
Si4169 O4304   1.622   .     S
Si4169 O4317   1.635   .     S
Si4169 O4389   1.623   .     S
Si4169 O800    1.621   1_556 S
Si4170 O4301   1.625   .     S
Si4170 O4317   1.630   .     S
Si4170 O4390   1.624   .     S
Si4170 O802    1.622   1_556 S
Si4171 O4319   1.626   .     S
Si4171 O4320   1.628   .     S
Si4171 O4328   1.623   .     S
Si4171 O4388   1.623   .     S
Si4172 O4285   1.621   .     S
Si4172 O4331   1.627   .     S
Si4172 O4345   1.626   .     S
Si4172 O4346   1.621   .     S
Si4173 O4331   1.629   .     S
Si4173 O4332   1.622   .     S
Si4173 O4336   1.626   .     S
Si4173 O4343   1.625   .     S
Si4174 O4332   1.624   .     S
Si4174 O4333   1.623   .     S
Si4174 O4371   1.618   .     S
Si4174 O4372   1.628   .     S
Si4175 O4333   1.621   .     S
Si4175 O4334   1.621   .     S
Si4175 O4368   1.621   .     S
Si4175 O4369   1.627   .     S
Si4176 O4334   1.627   .     S
Si4176 O4335   1.624   .     S
Si4176 O4344   1.626   .     S
Si4177 O4335   1.623   .     S
Si4177 O4336   1.626   .     S
Si4177 O4348   1.625   .     S
Si4177 O4349   1.620   .     S
Si4178 O4286   1.633   .     S
Si4178 O4337   1.623   .     S
Si4178 O4347   1.626   .     S
Si4178 O4375   1.623   .     S
Si4179 O4337   1.627   .     S
Si4179 O4338   1.608   .     S
Si4179 O4342   1.627   .     S
Si4179 O4343   1.626   .     S
Si4180 O4338   1.631   .     S
Si4180 O4339   1.639   .     S
Si4180 O4370   1.629   .     S
Si4180 O4377   1.596   .     S
Si4181 O4339   1.625   .     S
Si4181 O4340   1.629   .     S
Si4181 O4367   1.629   .     S
Si4181 O4378   1.621   .     S
Si4182 O4340   1.621   .     S
Si4182 O4341   1.628   .     S
Si4182 O4344   1.627   .     S
Si4183 O4341   1.629   .     S
Si4183 O4342   1.628   .     S
Si4183 O4350   1.628   .     S
Si4183 O4376   1.623   .     S
Si4184 O4263   1.624   .     S
Si4184 O4353   1.625   .     S
Si4184 O4367   1.624   .     S
Si4184 O4368   1.625   .     S
Si4185 O4353   1.622   .     S
Si4185 O4354   1.625   .     S
Si4185 O4358   1.623   .     S
Si4185 O4365   1.627   .     S
Si4186 O4349   1.620   .     S
Si4186 O4350   1.625   .     S
Si4187 O4346   1.619   .     S
Si4187 O4347   1.623   .     S
Si4188 O4356   1.622   .     S
Si4188 O4357   1.618   .     S
Si4188 O4366   1.627   .     S
Si4188 O4373   1.628   .     S
Si4189 O4357   1.625   .     S
Si4189 O4358   1.628   .     S
Si4189 O4370   1.614   .     S
Si4189 O4371   1.624   .     S
Si4190 O4264   1.629   .     S
Si4190 O4359   1.624   .     S
Si4190 O4369   1.629   .     S
Si4190 O4379   1.623   .     S
Si4191 O4359   1.621   .     S
Si4191 O4360   1.619   .     S
Si4191 O4364   1.628   .     S
Si4191 O4365   1.622   .     S
Si4192 O4348   1.621   .     S
Si4192 O4361   1.634   .     S
Si4192 O4381   1.620   .     S
Si4193 O4345   1.621   .     S
Si4193 O4361   1.631   .     S
Si4193 O4382   1.627   .     S
Si4194 O4362   1.625   .     S
Si4194 O4363   1.624   .     S
Si4194 O4366   1.623   .     S
Si4194 O4374   1.627   .     S
Si4195 O4363   1.627   .     S
Si4195 O4364   1.630   .     S
Si4195 O4372   1.624   .     S
Si4195 O4380   1.626   .     S
Si4196 O4312   1.629   .     S
Si4196 O4313   1.621   .     S
Si4196 O4322   1.628   .     S
Si4196 O4329   1.621   .     S
Si4197 O4318   1.624   .     S
Si4197 O4319   1.625   .     S
Si4197 O4322   1.624   .     S
Si4197 O4330   1.626   .     S
Al4198 O4206   1.722   .     S
Al4198 O4207   1.721   .     S
Al4198 O4238   1.890   .     S
Al4198 O4377   1.711   .     S
O4219  Si4693  1.627   .     S
O4220  Si4698  1.627   .     S
O4222  Si600   1.625   1_556 S
O4224  Si601   1.627   1_556 S
O4228  Si606   1.620   1_556 S
O4230  Si607   1.627   1_556 S
O4351  Si4762  1.626   .     S
O4352  Si4768  1.629   .     S
O4354  Si670   1.624   1_556 S
O4355  Si670   1.623   1_556 S
O4355  Si671   1.618   1_556 S
O4356  Si671   1.619   1_556 S
O4360  Si676   1.622   1_556 S
O4362  Si677   1.622   1_556 S
O4379  Si4408  1.623   1_545 S
O4380  Si4413  1.621   1_545 S
O4381  Si4410  1.618   1_545 S
O4382  Si4411  1.624   1_545 S
O4383  Si4444  1.619   1_545 S
O4384  Si4449  1.623   1_545 S
O4385  Si4446  1.623   1_545 S
O4386  Si4447  1.625   1_545 S
Si4391 O4487   1.625   .     S
Si4391 O4501   1.629   .     S
Si4391 O4502   1.623   .     S
Si4391 O4617   1.620   .     S
Si4392 O4487   1.629   .     S
Si4392 O4488   1.628   .     S
Si4392 O4492   1.625   .     S
Si4392 O4499   1.624   .     S
Si4393 O4488   1.622   .     S
Si4393 O4489   1.615   .     S
Si4393 O4527   1.635   .     S
Si4393 O4528   1.625   .     S
Si4394 O4489   1.622   .     S
Si4394 O4490   1.615   .     S
Si4394 O4524   1.620   .     S
Si4394 O4525   1.623   .     S
Si4395 O4490   1.622   .     S
Si4395 O4491   1.624   .     S
Si4395 O4500   1.622   .     S
Si4396 O4491   1.621   .     S
Si4396 O4492   1.626   .     S
Si4396 O4504   1.623   .     S
Si4396 O4505   1.622   .     S
Si4397 O4493   1.615   .     S
Si4397 O4503   1.628   .     S
Si4397 O4618   1.633   .     S
Si4397 O4663   1.622   .     S
Si4398 O4493   1.630   .     S
Si4398 O4494   1.595   .     S
Si4398 O4498   1.635   .     S
Si4398 O4499   1.639   .     S
Si4399 O4495   1.609   .     S
Si4399 O4496   1.631   .     S
Si4399 O4523   1.637   .     S
Si4399 O4666   1.634   .     S
Si4400 O4496   1.615   .     S
Si4400 O4497   1.626   .     S
Si4400 O4500   1.625   .     S
Si4401 O4497   1.627   .     S
Si4401 O4498   1.624   .     S
Si4401 O4506   1.628   .     S
Si4401 O4664   1.622   .     S
Si4402 O4509   1.627   .     S
Si4402 O4523   1.620   .     S
Si4402 O4524   1.628   .     S
Si4402 O4595   1.622   .     S
Si4403 O4509   1.614   .     S
Si4403 O4510   1.617   .     S
Si4403 O4514   1.640   .     S
Si4403 O4521   1.620   .     S
Si4404 O4505   1.619   .     S
Si4404 O4506   1.620   .     S
Si4404 O4511   1.621   .     S
Si4405 O4502   1.619   .     S
Si4405 O4503   1.621   .     S
Si4405 O4511   1.616   .     S
Si4406 O4512   1.619   .     S
Si4406 O4513   1.631   .     S
Si4406 O4522   1.619   .     S
Si4406 O4529   1.622   .     S
Si4407 O4513   1.611   .     S
Si4407 O4514   1.607   .     S
Si4407 O4526   1.700   .     S
Si4407 O4527   1.602   .     S
Si4408 O4515   1.622   .     S
Si4408 O4525   1.624   .     S
Si4408 O4596   1.631   .     S
Si4408 O4379   1.623   1_565 S
Si4409 O4515   1.616   .     S
Si4409 O4516   1.614   .     S
Si4409 O4520   1.625   .     S
Si4409 O4521   1.622   .     S
Si4410 O4504   1.619   .     S
Si4410 O4517   1.633   .     S
Si4410 O4381   1.618   1_565 S
Si4411 O4501   1.622   .     S
Si4411 O4517   1.632   .     S
Si4411 O4382   1.624   1_565 S
Si4412 O4518   1.622   .     S
Si4412 O4519   1.623   .     S
Si4412 O4522   1.628   .     S
Si4412 O4530   1.624   .     S
Si4413 O4519   1.628   .     S
Si4413 O4520   1.627   .     S
Si4413 O4528   1.627   .     S
Si4413 O4380   1.621   1_565 S
Si4414 O4531   1.621   .     S
Si4414 O4545   1.627   .     S
Si4414 O4546   1.626   .     S
Si4414 O4661   1.623   .     S
Si4415 O4531   1.620   .     S
Si4415 O4532   1.627   .     S
Si4415 O4536   1.618   .     S
Si4415 O4543   1.625   .     S
Si4416 O4532   1.625   .     S
Si4416 O4533   1.624   .     S
Si4416 O4571   1.624   .     S
Si4416 O4572   1.627   .     S
Si4417 O4533   1.624   .     S
Si4417 O4534   1.620   .     S
Si4417 O4568   1.624   .     S
Si4417 O4569   1.624   .     S
Si4418 O4534   1.629   .     S
Si4418 O4535   1.625   .     S
Si4418 O4544   1.628   .     S
Si4418 O5137   1.619   .     S
Si4419 O4535   1.623   .     S
Si4419 O4536   1.622   .     S
Si4419 O4548   1.624   .     S
Si4419 O4549   1.627   .     S
Si4420 O4537   1.621   .     S
Si4420 O4547   1.624   .     S
Si4420 O4662   1.628   .     S
Si4420 O4671   1.622   .     S
Si4421 O4537   1.618   .     S
Si4421 O4538   1.620   .     S
Si4421 O4542   1.625   .     S
Si4421 O4543   1.624   .     S
Si4422 O4538   1.625   .     S
Si4422 O4539   1.632   .     S
Si4422 O4570   1.621   .     S
Si4422 O4673   1.622   .     S
Si4423 O4539   1.633   .     S
Si4423 O4540   1.621   .     S
Si4423 O4567   1.622   .     S
Si4423 O4674   1.625   .     S
Si4424 O4540   1.624   .     S
Si4424 O4541   1.629   .     S
Si4424 O4544   1.623   .     S
Si4424 O5138   1.624   .     S
Si4425 O4541   1.628   .     S
Si4425 O4542   1.628   .     S
Si4425 O4550   1.627   .     S
Si4425 O4672   1.625   .     S
Si4426 O4553   1.621   .     S
Si4426 O4567   1.626   .     S
Si4426 O4568   1.627   .     S
Si4426 O4639   1.624   .     S
Si4427 O4553   1.620   .     S
Si4427 O4554   1.624   .     S
Si4427 O4558   1.622   .     S
Si4427 O4565   1.622   .     S
Si4428 O4549   1.626   .     S
Si4428 O4550   1.627   .     S
Si4428 O4555   1.625   .     S
Si4428 O1038   1.622   1_556 S
Si4429 O4546   1.624   .     S
Si4429 O4547   1.622   .     S
Si4429 O4555   1.620   .     S
Si4429 O1040   1.618   1_556 S
Si4430 O4556   1.625   .     S
Si4430 O4557   1.622   .     S
Si4430 O4566   1.627   .     S
Si4430 O4573   1.621   .     S
Si4431 O4557   1.622   .     S
Si4431 O4558   1.623   .     S
Si4431 O4570   1.624   .     S
Si4431 O4571   1.626   .     S
Si4432 O4559   1.623   .     S
Si4432 O4569   1.630   .     S
Si4432 O4640   1.628   .     S
Si4432 O4675   1.620   .     S
Si4433 O4559   1.617   .     S
Si4433 O4560   1.623   .     S
Si4433 O4564   1.628   .     S
Si4433 O4565   1.621   .     S
Si4434 O4548   1.622   .     S
Si4434 O4561   1.635   .     S
Si4434 O4677   1.625   .     S
Si4434 O1044   1.624   1_556 S
Si4435 O4545   1.624   .     S
Si4435 O4561   1.632   .     S
Si4435 O4678   1.625   .     S
Si4435 O1046   1.622   1_556 S
Si4436 O4562   1.626   .     S
Si4436 O4563   1.629   .     S
Si4436 O4566   1.622   .     S
Si4436 O4574   1.625   .     S
Si4437 O4563   1.630   .     S
Si4437 O4564   1.625   .     S
Si4437 O4572   1.627   .     S
Si4437 O4676   1.621   .     S
Si4438 O4529   1.627   .     S
Si4438 O4575   1.620   .     S
Si4438 O4589   1.627   .     S
Si4438 O4590   1.623   .     S
Si4439 O4575   1.624   .     S
Si4439 O4576   1.621   .     S
Si4439 O4580   1.619   .     S
Si4439 O4587   1.624   .     S
Si4440 O4576   1.623   .     S
Si4440 O4577   1.623   .     S
Si4440 O4615   1.624   .     S
Si4440 O4616   1.624   .     S
Si4441 O4577   1.622   .     S
Si4441 O4578   1.620   .     S
Si4441 O4612   1.624   .     S
Si4441 O4613   1.622   .     S
Si4442 O4578   1.625   .     S
Si4442 O4579   1.624   .     S
Si4442 O4588   1.630   .     S
Si4442 O5181   1.618   .     S
Si4443 O4579   1.621   .     S
Si4443 O4580   1.623   .     S
Si4443 O4592   1.624   .     S
Si4443 O4593   1.625   .     S
Si4444 O4530   1.628   .     S
Si4444 O4581   1.624   .     S
Si4444 O4591   1.625   .     S
Si4444 O4383   1.619   1_565 S
Si4445 O4581   1.622   .     S
Si4445 O4582   1.620   .     S
Si4445 O4586   1.625   .     S
Si4445 O4587   1.623   .     S
Si4446 O4582   1.625   .     S
Si4446 O4583   1.631   .     S
Si4446 O4614   1.621   .     S
Si4446 O4385   1.623   1_565 S
Si4447 O4583   1.632   .     S
Si4447 O4584   1.621   .     S
Si4447 O4611   1.623   .     S
Si4447 O4386   1.625   1_565 S
Si4448 O4584   1.624   .     S
Si4448 O4585   1.627   .     S
Si4448 O4588   1.625   .     S
Si4448 O5182   1.626   .     S
Si4449 O4585   1.627   .     S
Si4449 O4586   1.628   .     S
Si4449 O4594   1.627   .     S
Si4449 O4384   1.623   1_565 S
Si4450 O4507   1.625   .     S
Si4450 O4597   1.620   .     S
Si4450 O4611   1.627   .     S
Si4450 O4612   1.626   .     S
Si4451 O4597   1.619   .     S
Si4451 O4598   1.625   .     S
Si4451 O4602   1.623   .     S
Si4451 O4609   1.623   .     S
Si4452 O4593   1.623   .     S
Si4452 O4594   1.626   .     S
Si4452 O4599   1.624   .     S
Si4452 O1082   1.623   1_556 S
Si4453 O4590   1.623   .     S
Si4453 O4591   1.622   .     S
Si4453 O4599   1.619   .     S
Si4453 O1084   1.621   1_556 S
Si4454 O4601   1.621   .     S
Si4454 O4602   1.624   .     S
Si4454 O4614   1.623   .     S
Si4454 O4615   1.625   .     S
Si4455 O4508   1.625   .     S
Si4455 O4603   1.624   .     S
Si4455 O4613   1.629   .     S
Si4455 O4675   1.621   .     S
Si4456 O4603   1.618   .     S
Si4456 O4604   1.619   .     S
Si4456 O4608   1.628   .     S
Si4456 O4609   1.623   .     S
Si4457 O4592   1.622   .     S
Si4457 O4605   1.635   .     S
Si4457 O4677   1.623   .     S
Si4457 O1088   1.621   1_556 S
Si4458 O4589   1.625   .     S
Si4458 O4605   1.630   .     S
Si4458 O4678   1.624   .     S
Si4458 O1090   1.622   1_556 S
Si4459 O4607   1.626   .     S
Si4459 O4608   1.628   .     S
Si4459 O4616   1.623   .     S
Si4459 O4676   1.623   .     S
Si4460 O4573   1.621   .     S
Si4460 O4619   1.627   .     S
Si4460 O4633   1.626   .     S
Si4460 O4634   1.621   .     S
Si4461 O4619   1.629   .     S
Si4461 O4620   1.622   .     S
Si4461 O4624   1.626   .     S
Si4461 O4631   1.625   .     S
Si4462 O4620   1.624   .     S
Si4462 O4621   1.623   .     S
Si4462 O4659   1.618   .     S
Si4462 O4660   1.628   .     S
Si4463 O4621   1.621   .     S
Si4463 O4622   1.621   .     S
Si4463 O4656   1.621   .     S
Si4463 O4657   1.627   .     S
Si4464 O4622   1.627   .     S
Si4464 O4623   1.624   .     S
Si4464 O4632   1.626   .     S
Si4465 O4623   1.623   .     S
Si4465 O4624   1.626   .     S
Si4465 O4636   1.625   .     S
Si4465 O4637   1.620   .     S
Si4466 O4574   1.633   .     S
Si4466 O4625   1.623   .     S
Si4466 O4635   1.626   .     S
Si4466 O4663   1.623   .     S
Si4467 O4625   1.627   .     S
Si4467 O4626   1.608   .     S
Si4467 O4630   1.627   .     S
Si4467 O4631   1.626   .     S
Si4468 O4626   1.631   .     S
Si4468 O4627   1.639   .     S
Si4468 O4658   1.629   .     S
Si4468 O4665   1.596   .     S
Si4469 O4627   1.625   .     S
Si4469 O4628   1.629   .     S
Si4469 O4655   1.629   .     S
Si4469 O4666   1.621   .     S
Si4470 O4628   1.621   .     S
Si4470 O4629   1.628   .     S
Si4470 O4632   1.627   .     S
Si4471 O4629   1.629   .     S
Si4471 O4630   1.628   .     S
Si4471 O4638   1.628   .     S
Si4471 O4664   1.623   .     S
Si4472 O4551   1.624   .     S
Si4472 O4641   1.625   .     S
Si4472 O4655   1.624   .     S
Si4472 O4656   1.625   .     S
Si4473 O4641   1.622   .     S
Si4473 O4642   1.625   .     S
Si4473 O4646   1.623   .     S
Si4473 O4653   1.627   .     S
Si4474 O4637   1.620   .     S
Si4474 O4638   1.625   .     S
Si4475 O4634   1.619   .     S
Si4475 O4635   1.623   .     S
Si4476 O4644   1.622   .     S
Si4476 O4645   1.618   .     S
Si4476 O4654   1.627   .     S
Si4476 O4661   1.628   .     S
Si4477 O4645   1.625   .     S
Si4477 O4646   1.628   .     S
Si4477 O4658   1.614   .     S
Si4477 O4659   1.624   .     S
Si4478 O4552   1.629   .     S
Si4478 O4647   1.624   .     S
Si4478 O4657   1.629   .     S
Si4478 O4667   1.623   .     S
Si4479 O4647   1.621   .     S
Si4479 O4648   1.619   .     S
Si4479 O4652   1.628   .     S
Si4479 O4653   1.622   .     S
Si4480 O4636   1.621   .     S
Si4480 O4649   1.634   .     S
Si4480 O4669   1.620   .     S
Si4481 O4633   1.621   .     S
Si4481 O4649   1.631   .     S
Si4481 O4670   1.628   .     S
Si4482 O4650   1.625   .     S
Si4482 O4651   1.624   .     S
Si4482 O4654   1.623   .     S
Si4482 O4662   1.627   .     S
Si4483 O4651   1.627   .     S
Si4483 O4652   1.630   .     S
Si4483 O4660   1.624   .     S
Si4483 O4668   1.626   .     S
Si4484 O4600   1.629   .     S
Si4484 O4601   1.621   .     S
Si4484 O4610   1.628   .     S
Si4484 O4617   1.621   .     S
Si4485 O4606   1.624   .     S
Si4485 O4607   1.625   .     S
Si4485 O4610   1.624   .     S
Si4485 O4618   1.626   .     S
Al4486 O4494   1.722   .     S
Al4486 O4495   1.721   .     S
Al4486 O4526   1.890   .     S
Al4486 O4665   1.711   .     S
O4507  Si4981  1.627   .     S
O4508  Si4986  1.627   .     S
O4510  Si888   1.625   1_556 S
O4512  Si889   1.627   1_556 S
O4516  Si894   1.620   1_556 S
O4518  Si895   1.627   1_556 S
O4526  H4679   0.999   .     S
O4639  Si5050  1.626   .     S
O4640  Si5056  1.629   .     S
O4642  Si958   1.624   1_556 S
O4643  Si958   1.623   1_556 S
O4643  Si959   1.618   1_556 S
O4644  Si959   1.619   1_556 S
O4648  Si964   1.622   1_556 S
O4650  Si965   1.622   1_556 S
H4680  C4686   1.089   .     S
H4681  C4687   1.087   .     S
H4682  C4684   1.090   .     S
H4683  C4685   1.088   .     S
C4684  C4685   1.373   .     D
C4684  C4686   1.429   .     S
C4685  S4688   1.723   .     S
C4686  C4687   1.372   .     D
C4687  S4688   1.722   .     S
Si4689 O4785   1.625   .     S
Si4689 O4799   1.629   .     S
Si4689 O4800   1.623   .     S
Si4689 O4915   1.620   .     S
Si4690 O4785   1.629   .     S
Si4690 O4786   1.628   .     S
Si4690 O4790   1.625   .     S
Si4690 O4797   1.624   .     S
Si4691 O4786   1.622   .     S
Si4691 O4787   1.615   .     S
Si4691 O4825   1.635   .     S
Si4691 O4826   1.625   .     S
Si4692 O4787   1.622   .     S
Si4692 O4788   1.615   .     S
Si4692 O4822   1.620   .     S
Si4692 O4823   1.623   .     S
Si4693 O4788   1.622   .     S
Si4693 O4789   1.624   .     S
Si4693 O4798   1.622   .     S
Si4694 O4789   1.621   .     S
Si4694 O4790   1.626   .     S
Si4694 O4802   1.623   .     S
Si4694 O4803   1.622   .     S
Si4695 O4791   1.615   .     S
Si4695 O4801   1.628   .     S
Si4695 O4916   1.633   .     S
Si4695 O4961   1.622   .     S
Si4696 O4791   1.630   .     S
Si4696 O4792   1.595   .     S
Si4696 O4796   1.635   .     S
Si4696 O4797   1.639   .     S
Si4697 O4793   1.609   .     S
Si4697 O4794   1.631   .     S
Si4697 O4821   1.637   .     S
Si4697 O4964   1.634   .     S
Si4698 O4794   1.615   .     S
Si4698 O4795   1.626   .     S
Si4698 O4798   1.625   .     S
Si4699 O4795   1.627   .     S
Si4699 O4796   1.624   .     S
Si4699 O4804   1.628   .     S
Si4699 O4962   1.622   .     S
Si4700 O4807   1.627   .     S
Si4700 O4821   1.620   .     S
Si4700 O4822   1.628   .     S
Si4700 O4893   1.622   .     S
Si4701 O4807   1.614   .     S
Si4701 O4808   1.617   .     S
Si4701 O4812   1.640   .     S
Si4701 O4819   1.620   .     S
Si4702 O4803   1.619   .     S
Si4702 O4804   1.620   .     S
Si4702 O4809   1.621   .     S
Si4703 O4800   1.619   .     S
Si4703 O4801   1.621   .     S
Si4703 O4809   1.616   .     S
Si4704 O4810   1.619   .     S
Si4704 O4811   1.631   .     S
Si4704 O4820   1.619   .     S
Si4704 O4827   1.622   .     S
Si4705 O4811   1.611   .     S
Si4705 O4812   1.607   .     S
Si4705 O4824   1.700   .     S
Si4705 O4825   1.602   .     S
Si4706 O4813   1.622   .     S
Si4706 O4823   1.624   .     S
Si4706 O4894   1.631   .     S
Si4706 O5253   1.623   .     S
Si4707 O4813   1.616   .     S
Si4707 O4814   1.614   .     S
Si4707 O4818   1.625   .     S
Si4707 O4819   1.622   .     S
Si4708 O4802   1.619   .     S
Si4708 O4815   1.633   .     S
Si4708 O5255   1.618   .     S
Si4709 O4799   1.622   .     S
Si4709 O4815   1.632   .     S
Si4709 O5256   1.623   .     S
Si4710 O4816   1.622   .     S
Si4710 O4817   1.623   .     S
Si4710 O4820   1.628   .     S
Si4710 O4828   1.624   .     S
Si4711 O4817   1.628   .     S
Si4711 O4818   1.627   .     S
Si4711 O4826   1.627   .     S
Si4711 O5254   1.621   .     S
Si4712 O4829   1.621   .     S
Si4712 O4843   1.627   .     S
Si4712 O4844   1.626   .     S
Si4712 O4959   1.623   .     S
Si4713 O4829   1.620   .     S
Si4713 O4830   1.627   .     S
Si4713 O4834   1.618   .     S
Si4713 O4841   1.625   .     S
Si4714 O4830   1.625   .     S
Si4714 O4831   1.624   .     S
Si4714 O4869   1.624   .     S
Si4714 O4870   1.627   .     S
Si4715 O4831   1.624   .     S
Si4715 O4832   1.620   .     S
Si4715 O4866   1.624   .     S
Si4715 O4867   1.624   .     S
Si4716 O4832   1.629   .     S
Si4716 O4833   1.625   .     S
Si4716 O4842   1.628   .     S
Si4716 O3677   1.619   1_655 S
Si4717 O4833   1.623   .     S
Si4717 O4834   1.622   .     S
Si4717 O4846   1.624   .     S
Si4717 O4847   1.627   .     S
Si4718 O4835   1.621   .     S
Si4718 O4845   1.624   .     S
Si4718 O4960   1.628   .     S
Si4718 O4969   1.622   .     S
Si4719 O4835   1.618   .     S
Si4719 O4836   1.620   .     S
Si4719 O4840   1.625   .     S
Si4719 O4841   1.624   .     S
Si4720 O4836   1.625   .     S
Si4720 O4837   1.632   .     S
Si4720 O4868   1.621   .     S
Si4720 O4971   1.622   .     S
Si4721 O4837   1.633   .     S
Si4721 O4838   1.621   .     S
Si4721 O4865   1.622   .     S
Si4721 O4972   1.625   .     S
Si4722 O4838   1.624   .     S
Si4722 O4839   1.629   .     S
Si4722 O4842   1.623   .     S
Si4722 O3678   1.624   1_655 S
Si4723 O4839   1.628   .     S
Si4723 O4840   1.628   .     S
Si4723 O4848   1.627   .     S
Si4723 O4970   1.625   .     S
Si4724 O4851   1.621   .     S
Si4724 O4865   1.626   .     S
Si4724 O4866   1.627   .     S
Si4724 O4937   1.624   .     S
Si4725 O4851   1.620   .     S
Si4725 O4852   1.624   .     S
Si4725 O4856   1.622   .     S
Si4725 O4863   1.622   .     S
Si4726 O4847   1.626   .     S
Si4726 O4848   1.627   .     S
Si4726 O4853   1.625   .     S
Si4726 O1336   1.622   1_556 S
Si4727 O4844   1.624   .     S
Si4727 O4845   1.622   .     S
Si4727 O4853   1.620   .     S
Si4727 O1338   1.618   1_556 S
Si4728 O4854   1.625   .     S
Si4728 O4855   1.622   .     S
Si4728 O4864   1.627   .     S
Si4728 O4871   1.621   .     S
Si4729 O4855   1.622   .     S
Si4729 O4856   1.623   .     S
Si4729 O4868   1.624   .     S
Si4729 O4869   1.626   .     S
Si4730 O4857   1.623   .     S
Si4730 O4867   1.630   .     S
Si4730 O4938   1.628   .     S
Si4730 O4973   1.620   .     S
Si4731 O4857   1.617   .     S
Si4731 O4858   1.623   .     S
Si4731 O4862   1.628   .     S
Si4731 O4863   1.621   .     S
Si4732 O4846   1.622   .     S
Si4732 O4859   1.635   .     S
Si4732 O4975   1.625   .     S
Si4732 O1342   1.624   1_556 S
Si4733 O4843   1.624   .     S
Si4733 O4859   1.632   .     S
Si4733 O4976   1.625   .     S
Si4733 O1344   1.622   1_556 S
Si4734 O4860   1.626   .     S
Si4734 O4861   1.629   .     S
Si4734 O4864   1.622   .     S
Si4734 O4872   1.625   .     S
Si4735 O4861   1.630   .     S
Si4735 O4862   1.625   .     S
Si4735 O4870   1.627   .     S
Si4735 O4974   1.621   .     S
Si4736 O4827   1.627   .     S
Si4736 O4873   1.620   .     S
Si4736 O4887   1.627   .     S
Si4736 O4888   1.623   .     S
Si4737 O4873   1.624   .     S
Si4737 O4874   1.621   .     S
Si4737 O4878   1.619   .     S
Si4737 O4885   1.624   .     S
Si4738 O4874   1.623   .     S
Si4738 O4875   1.623   .     S
Si4738 O4913   1.624   .     S
Si4738 O4914   1.624   .     S
Si4739 O4875   1.622   .     S
Si4739 O4876   1.620   .     S
Si4739 O4910   1.624   .     S
Si4739 O4911   1.622   .     S
Si4740 O4876   1.625   .     S
Si4740 O4877   1.624   .     S
Si4740 O4886   1.630   .     S
Si4740 O3721   1.618   1_655 S
Si4741 O4877   1.621   .     S
Si4741 O4878   1.623   .     S
Si4741 O4890   1.624   .     S
Si4741 O4891   1.625   .     S
Si4742 O4828   1.628   .     S
Si4742 O4879   1.624   .     S
Si4742 O4889   1.625   .     S
Si4742 O5257   1.619   .     S
Si4743 O4879   1.622   .     S
Si4743 O4880   1.620   .     S
Si4743 O4884   1.625   .     S
Si4743 O4885   1.623   .     S
Si4744 O4880   1.625   .     S
Si4744 O4881   1.631   .     S
Si4744 O4912   1.621   .     S
Si4744 O5259   1.623   .     S
Si4745 O4881   1.632   .     S
Si4745 O4882   1.621   .     S
Si4745 O4909   1.623   .     S
Si4745 O5260   1.625   .     S
Si4746 O4882   1.624   .     S
Si4746 O4883   1.627   .     S
Si4746 O4886   1.625   .     S
Si4746 O3722   1.626   1_655 S
Si4747 O4883   1.627   .     S
Si4747 O4884   1.628   .     S
Si4747 O4892   1.627   .     S
Si4747 O5258   1.623   .     S
Si4748 O4805   1.625   .     S
Si4748 O4895   1.620   .     S
Si4748 O4909   1.627   .     S
Si4748 O4910   1.626   .     S
Si4749 O4895   1.619   .     S
Si4749 O4896   1.625   .     S
Si4749 O4900   1.623   .     S
Si4749 O4907   1.623   .     S
Si4750 O4891   1.623   .     S
Si4750 O4892   1.626   .     S
Si4750 O4897   1.624   .     S
Si4750 O1380   1.623   1_556 S
Si4751 O4888   1.623   .     S
Si4751 O4889   1.622   .     S
Si4751 O4897   1.619   .     S
Si4751 O1382   1.621   1_556 S
Si4752 O4899   1.621   .     S
Si4752 O4900   1.624   .     S
Si4752 O4912   1.623   .     S
Si4752 O4913   1.625   .     S
Si4753 O4806   1.625   .     S
Si4753 O4901   1.624   .     S
Si4753 O4911   1.629   .     S
Si4753 O4973   1.621   .     S
Si4754 O4901   1.618   .     S
Si4754 O4902   1.619   .     S
Si4754 O4906   1.628   .     S
Si4754 O4907   1.623   .     S
Si4755 O4890   1.622   .     S
Si4755 O4903   1.635   .     S
Si4755 O4975   1.623   .     S
Si4755 O1386   1.621   1_556 S
Si4756 O4887   1.625   .     S
Si4756 O4903   1.630   .     S
Si4756 O4976   1.624   .     S
Si4756 O1388   1.622   1_556 S
Si4757 O4905   1.626   .     S
Si4757 O4906   1.628   .     S
Si4757 O4914   1.623   .     S
Si4757 O4974   1.623   .     S
Si4758 O4871   1.621   .     S
Si4758 O4917   1.627   .     S
Si4758 O4931   1.626   .     S
Si4758 O4932   1.621   .     S
Si4759 O4917   1.629   .     S
Si4759 O4918   1.622   .     S
Si4759 O4922   1.626   .     S
Si4759 O4929   1.625   .     S
Si4760 O4918   1.624   .     S
Si4760 O4919   1.623   .     S
Si4760 O4957   1.618   .     S
Si4760 O4958   1.628   .     S
Si4761 O4919   1.621   .     S
Si4761 O4920   1.621   .     S
Si4761 O4954   1.621   .     S
Si4761 O4955   1.627   .     S
Si4762 O4920   1.627   .     S
Si4762 O4921   1.624   .     S
Si4762 O4930   1.626   .     S
Si4763 O4921   1.623   .     S
Si4763 O4922   1.626   .     S
Si4763 O4934   1.625   .     S
Si4763 O4935   1.620   .     S
Si4764 O4872   1.633   .     S
Si4764 O4923   1.623   .     S
Si4764 O4933   1.626   .     S
Si4764 O4961   1.623   .     S
Si4765 O4923   1.627   .     S
Si4765 O4924   1.608   .     S
Si4765 O4928   1.627   .     S
Si4765 O4929   1.626   .     S
Si4766 O4924   1.631   .     S
Si4766 O4925   1.639   .     S
Si4766 O4956   1.629   .     S
Si4766 O4963   1.596   .     S
Si4767 O4925   1.625   .     S
Si4767 O4926   1.629   .     S
Si4767 O4953   1.629   .     S
Si4767 O4964   1.621   .     S
Si4768 O4926   1.621   .     S
Si4768 O4927   1.628   .     S
Si4768 O4930   1.627   .     S
Si4769 O4927   1.629   .     S
Si4769 O4928   1.628   .     S
Si4769 O4936   1.628   .     S
Si4769 O4962   1.623   .     S
Si4770 O4849   1.624   .     S
Si4770 O4939   1.625   .     S
Si4770 O4953   1.624   .     S
Si4770 O4954   1.625   .     S
Si4771 O4939   1.622   .     S
Si4771 O4940   1.625   .     S
Si4771 O4944   1.623   .     S
Si4771 O4951   1.627   .     S
Si4772 O4935   1.620   .     S
Si4772 O4936   1.625   .     S
Si4773 O4932   1.619   .     S
Si4773 O4933   1.623   .     S
Si4774 O4942   1.622   .     S
Si4774 O4943   1.618   .     S
Si4774 O4952   1.627   .     S
Si4774 O4959   1.628   .     S
Si4775 O4943   1.625   .     S
Si4775 O4944   1.628   .     S
Si4775 O4956   1.614   .     S
Si4775 O4957   1.624   .     S
Si4776 O4850   1.629   .     S
Si4776 O4945   1.624   .     S
Si4776 O4955   1.629   .     S
Si4776 O4965   1.623   .     S
Si4777 O4945   1.621   .     S
Si4777 O4946   1.619   .     S
Si4777 O4950   1.628   .     S
Si4777 O4951   1.622   .     S
Si4778 O4934   1.621   .     S
Si4778 O4947   1.634   .     S
Si4778 O4967   1.620   .     S
Si4779 O4931   1.621   .     S
Si4779 O4947   1.631   .     S
Si4779 O4968   1.627   .     S
Si4780 O4948   1.625   .     S
Si4780 O4949   1.624   .     S
Si4780 O4952   1.623   .     S
Si4780 O4960   1.627   .     S
Si4781 O4949   1.627   .     S
Si4781 O4950   1.630   .     S
Si4781 O4958   1.624   .     S
Si4781 O4966   1.626   .     S
Si4782 O4898   1.629   .     S
Si4782 O4899   1.621   .     S
Si4782 O4908   1.628   .     S
Si4782 O4915   1.621   .     S
Si4783 O4904   1.624   .     S
Si4783 O4905   1.625   .     S
Si4783 O4908   1.624   .     S
Si4783 O4916   1.626   .     S
Al4784 O4792   1.722   .     S
Al4784 O4793   1.721   .     S
Al4784 O4824   1.890   .     S
Al4784 O4963   1.711   .     S
O4805  Si3521  1.627   1_655 S
O4806  Si3526  1.627   1_655 S
O4808  Si1186  1.625   1_556 S
O4810  Si1187  1.627   1_556 S
O4814  Si1192  1.620   1_556 S
O4816  Si1193  1.627   1_556 S
O4937  Si3590  1.626   1_655 S
O4938  Si3596  1.629   1_655 S
O4940  Si1256  1.624   1_556 S
O4941  Si1256  1.623   1_556 S
O4941  Si1257  1.618   1_556 S
O4942  Si1257  1.619   1_556 S
O4946  Si1262  1.622   1_556 S
O4948  Si1263  1.622   1_556 S
O4965  Si4994  1.623   1_545 S
O4966  Si4999  1.621   1_545 S
O4967  Si4996  1.618   1_545 S
O4968  Si4997  1.624   1_545 S
O4969  Si5030  1.619   1_545 S
O4970  Si5035  1.623   1_545 S
O4971  Si5032  1.623   1_545 S
O4972  Si5033  1.625   1_545 S
Si4977 O5073   1.625   .     S
Si4977 O5087   1.629   .     S
Si4977 O5088   1.623   .     S
Si4977 O5203   1.620   .     S
Si4978 O5073   1.629   .     S
Si4978 O5074   1.628   .     S
Si4978 O5078   1.625   .     S
Si4978 O5085   1.624   .     S
Si4979 O5074   1.622   .     S
Si4979 O5075   1.615   .     S
Si4979 O5113   1.635   .     S
Si4979 O5114   1.625   .     S
Si4980 O5075   1.622   .     S
Si4980 O5076   1.615   .     S
Si4980 O5110   1.620   .     S
Si4980 O5111   1.623   .     S
Si4981 O5076   1.622   .     S
Si4981 O5077   1.624   .     S
Si4981 O5086   1.622   .     S
Si4982 O5077   1.621   .     S
Si4982 O5078   1.626   .     S
Si4982 O5090   1.623   .     S
Si4982 O5091   1.622   .     S
Si4983 O5079   1.615   .     S
Si4983 O5089   1.628   .     S
Si4983 O5204   1.633   .     S
Si4983 O5249   1.622   .     S
Si4984 O5079   1.630   .     S
Si4984 O5080   1.595   .     S
Si4984 O5084   1.635   .     S
Si4984 O5085   1.639   .     S
Si4985 O5081   1.609   .     S
Si4985 O5082   1.631   .     S
Si4985 O5109   1.637   .     S
Si4985 O5252   1.634   .     S
Si4986 O5082   1.615   .     S
Si4986 O5083   1.626   .     S
Si4986 O5086   1.625   .     S
Si4987 O5083   1.627   .     S
Si4987 O5084   1.624   .     S
Si4987 O5092   1.628   .     S
Si4987 O5250   1.622   .     S
Si4988 O5095   1.627   .     S
Si4988 O5109   1.620   .     S
Si4988 O5110   1.628   .     S
Si4988 O5181   1.622   .     S
Si4989 O5095   1.614   .     S
Si4989 O5096   1.617   .     S
Si4989 O5100   1.640   .     S
Si4989 O5107   1.620   .     S
Si4990 O5091   1.619   .     S
Si4990 O5092   1.620   .     S
Si4990 O5097   1.621   .     S
Si4991 O5088   1.619   .     S
Si4991 O5089   1.621   .     S
Si4991 O5097   1.616   .     S
Si4992 O5098   1.619   .     S
Si4992 O5099   1.631   .     S
Si4992 O5108   1.619   .     S
Si4992 O5115   1.622   .     S
Si4993 O5099   1.611   .     S
Si4993 O5100   1.607   .     S
Si4993 O5112   1.700   .     S
Si4993 O5113   1.602   .     S
Si4994 O5101   1.622   .     S
Si4994 O5111   1.624   .     S
Si4994 O5182   1.631   .     S
Si4994 O4965   1.623   1_565 S
Si4995 O5101   1.616   .     S
Si4995 O5102   1.614   .     S
Si4995 O5106   1.625   .     S
Si4995 O5107   1.622   .     S
Si4996 O5090   1.619   .     S
Si4996 O5103   1.633   .     S
Si4996 O4967   1.618   1_565 S
Si4997 O5087   1.622   .     S
Si4997 O5103   1.632   .     S
Si4997 O4968   1.624   1_565 S
Si4998 O5104   1.622   .     S
Si4998 O5105   1.623   .     S
Si4998 O5108   1.628   .     S
Si4998 O5116   1.624   .     S
Si4999 O5105   1.628   .     S
Si4999 O5106   1.627   .     S
Si4999 O5114   1.627   .     S
Si4999 O4966   1.621   1_565 S
Si5000 O5117   1.621   .     S
Si5000 O5131   1.627   .     S
Si5000 O5132   1.626   .     S
Si5000 O5247   1.623   .     S
Si5001 O5117   1.620   .     S
Si5001 O5118   1.627   .     S
Si5001 O5122   1.618   .     S
Si5001 O5129   1.625   .     S
Si5002 O5118   1.625   .     S
Si5002 O5119   1.624   .     S
Si5002 O5157   1.624   .     S
Si5002 O5158   1.627   .     S
Si5003 O5119   1.624   .     S
Si5003 O5120   1.620   .     S
Si5003 O5154   1.624   .     S
Si5003 O5155   1.624   .     S
Si5004 O5120   1.629   .     S
Si5004 O5121   1.625   .     S
Si5004 O5130   1.628   .     S
Si5004 O3965   1.619   1_655 S
Si5005 O5121   1.623   .     S
Si5005 O5122   1.622   .     S
Si5005 O5134   1.624   .     S
Si5005 O5135   1.627   .     S
Si5006 O5123   1.621   .     S
Si5006 O5133   1.624   .     S
Si5006 O5248   1.628   .     S
Si5006 O5257   1.622   .     S
Si5007 O5123   1.618   .     S
Si5007 O5124   1.620   .     S
Si5007 O5128   1.625   .     S
Si5007 O5129   1.624   .     S
Si5008 O5124   1.625   .     S
Si5008 O5125   1.632   .     S
Si5008 O5156   1.621   .     S
Si5008 O5259   1.622   .     S
Si5009 O5125   1.633   .     S
Si5009 O5126   1.621   .     S
Si5009 O5153   1.622   .     S
Si5009 O5260   1.625   .     S
Si5010 O5126   1.624   .     S
Si5010 O5127   1.629   .     S
Si5010 O5130   1.623   .     S
Si5010 O3966   1.624   1_655 S
Si5011 O5127   1.628   .     S
Si5011 O5128   1.628   .     S
Si5011 O5136   1.627   .     S
Si5011 O5258   1.625   .     S
Si5012 O5139   1.621   .     S
Si5012 O5153   1.626   .     S
Si5012 O5154   1.627   .     S
Si5012 O5225   1.624   .     S
Si5013 O5139   1.620   .     S
Si5013 O5140   1.624   .     S
Si5013 O5144   1.622   .     S
Si5013 O5151   1.622   .     S
Si5014 O5135   1.626   .     S
Si5014 O5136   1.627   .     S
Si5014 O5141   1.625   .     S
Si5014 O1624   1.622   1_556 S
Si5015 O5132   1.624   .     S
Si5015 O5133   1.622   .     S
Si5015 O5141   1.620   .     S
Si5015 O1626   1.618   1_556 S
Si5016 O5142   1.625   .     S
Si5016 O5143   1.622   .     S
Si5016 O5152   1.627   .     S
Si5016 O5159   1.621   .     S
Si5017 O5143   1.622   .     S
Si5017 O5144   1.623   .     S
Si5017 O5156   1.624   .     S
Si5017 O5157   1.626   .     S
Si5018 O5145   1.623   .     S
Si5018 O5155   1.630   .     S
Si5018 O5226   1.628   .     S
Si5018 O5261   1.620   .     S
Si5019 O5145   1.617   .     S
Si5019 O5146   1.623   .     S
Si5019 O5150   1.628   .     S
Si5019 O5151   1.621   .     S
Si5020 O5134   1.622   .     S
Si5020 O5147   1.635   .     S
Si5020 O5263   1.625   .     S
Si5020 O1630   1.624   1_556 S
Si5021 O5131   1.624   .     S
Si5021 O5147   1.632   .     S
Si5021 O5264   1.625   .     S
Si5021 O1632   1.622   1_556 S
Si5022 O5148   1.626   .     S
Si5022 O5149   1.629   .     S
Si5022 O5152   1.622   .     S
Si5022 O5160   1.625   .     S
Si5023 O5149   1.630   .     S
Si5023 O5150   1.625   .     S
Si5023 O5158   1.627   .     S
Si5023 O5262   1.621   .     S
Si5024 O5115   1.627   .     S
Si5024 O5161   1.620   .     S
Si5024 O5175   1.627   .     S
Si5024 O5176   1.623   .     S
Si5025 O5161   1.624   .     S
Si5025 O5162   1.621   .     S
Si5025 O5166   1.619   .     S
Si5025 O5173   1.624   .     S
Si5026 O5162   1.623   .     S
Si5026 O5163   1.623   .     S
Si5026 O5201   1.624   .     S
Si5026 O5202   1.624   .     S
Si5027 O5163   1.622   .     S
Si5027 O5164   1.620   .     S
Si5027 O5198   1.624   .     S
Si5027 O5199   1.622   .     S
Si5028 O5164   1.625   .     S
Si5028 O5165   1.624   .     S
Si5028 O5174   1.630   .     S
Si5028 O4009   1.618   1_655 S
Si5029 O5165   1.621   .     S
Si5029 O5166   1.623   .     S
Si5029 O5178   1.624   .     S
Si5029 O5179   1.625   .     S
Si5030 O5116   1.628   .     S
Si5030 O5167   1.624   .     S
Si5030 O5177   1.625   .     S
Si5030 O4969   1.619   1_565 S
Si5031 O5167   1.622   .     S
Si5031 O5168   1.620   .     S
Si5031 O5172   1.625   .     S
Si5031 O5173   1.623   .     S
Si5032 O5168   1.625   .     S
Si5032 O5169   1.631   .     S
Si5032 O5200   1.621   .     S
Si5032 O4971   1.623   1_565 S
Si5033 O5169   1.632   .     S
Si5033 O5170   1.621   .     S
Si5033 O5197   1.623   .     S
Si5033 O4972   1.625   1_565 S
Si5034 O5170   1.624   .     S
Si5034 O5171   1.627   .     S
Si5034 O5174   1.625   .     S
Si5034 O4010   1.626   1_655 S
Si5035 O5171   1.627   .     S
Si5035 O5172   1.628   .     S
Si5035 O5180   1.627   .     S
Si5035 O4970   1.623   1_565 S
Si5036 O5093   1.625   .     S
Si5036 O5183   1.620   .     S
Si5036 O5197   1.627   .     S
Si5036 O5198   1.626   .     S
Si5037 O5183   1.619   .     S
Si5037 O5184   1.625   .     S
Si5037 O5188   1.623   .     S
Si5037 O5195   1.623   .     S
Si5038 O5179   1.623   .     S
Si5038 O5180   1.626   .     S
Si5038 O5185   1.624   .     S
Si5038 O1668   1.623   1_556 S
Si5039 O5176   1.623   .     S
Si5039 O5177   1.622   .     S
Si5039 O5185   1.619   .     S
Si5039 O1670   1.621   1_556 S
Si5040 O5187   1.621   .     S
Si5040 O5188   1.624   .     S
Si5040 O5200   1.623   .     S
Si5040 O5201   1.625   .     S
Si5041 O5094   1.625   .     S
Si5041 O5189   1.624   .     S
Si5041 O5199   1.629   .     S
Si5041 O5261   1.621   .     S
Si5042 O5189   1.618   .     S
Si5042 O5190   1.619   .     S
Si5042 O5194   1.628   .     S
Si5042 O5195   1.623   .     S
Si5043 O5178   1.622   .     S
Si5043 O5191   1.635   .     S
Si5043 O5263   1.623   .     S
Si5043 O1674   1.621   1_556 S
Si5044 O5175   1.625   .     S
Si5044 O5191   1.630   .     S
Si5044 O5264   1.624   .     S
Si5044 O1676   1.622   1_556 S
Si5045 O5193   1.626   .     S
Si5045 O5194   1.628   .     S
Si5045 O5202   1.623   .     S
Si5045 O5262   1.623   .     S
Si5046 O5159   1.621   .     S
Si5046 O5205   1.627   .     S
Si5046 O5219   1.626   .     S
Si5046 O5220   1.621   .     S
Si5047 O5205   1.629   .     S
Si5047 O5206   1.622   .     S
Si5047 O5210   1.626   .     S
Si5047 O5217   1.625   .     S
Si5048 O5206   1.624   .     S
Si5048 O5207   1.623   .     S
Si5048 O5245   1.618   .     S
Si5048 O5246   1.628   .     S
Si5049 O5207   1.621   .     S
Si5049 O5208   1.621   .     S
Si5049 O5242   1.621   .     S
Si5049 O5243   1.627   .     S
Si5050 O5208   1.627   .     S
Si5050 O5209   1.624   .     S
Si5050 O5218   1.626   .     S
Si5051 O5209   1.623   .     S
Si5051 O5210   1.626   .     S
Si5051 O5222   1.625   .     S
Si5051 O5223   1.620   .     S
Si5052 O5160   1.633   .     S
Si5052 O5211   1.623   .     S
Si5052 O5221   1.626   .     S
Si5052 O5249   1.623   .     S
Si5053 O5211   1.627   .     S
Si5053 O5212   1.608   .     S
Si5053 O5216   1.627   .     S
Si5053 O5217   1.626   .     S
Si5054 O5212   1.631   .     S
Si5054 O5213   1.639   .     S
Si5054 O5244   1.629   .     S
Si5054 O5251   1.596   .     S
Si5055 O5213   1.625   .     S
Si5055 O5214   1.629   .     S
Si5055 O5241   1.629   .     S
Si5055 O5252   1.621   .     S
Si5056 O5214   1.621   .     S
Si5056 O5215   1.628   .     S
Si5056 O5218   1.627   .     S
Si5057 O5215   1.629   .     S
Si5057 O5216   1.628   .     S
Si5057 O5224   1.628   .     S
Si5057 O5250   1.623   .     S
Si5058 O5137   1.624   .     S
Si5058 O5227   1.625   .     S
Si5058 O5241   1.624   .     S
Si5058 O5242   1.625   .     S
Si5059 O5227   1.622   .     S
Si5059 O5228   1.625   .     S
Si5059 O5232   1.623   .     S
Si5059 O5239   1.627   .     S
Si5060 O5223   1.620   .     S
Si5060 O5224   1.625   .     S
Si5061 O5220   1.619   .     S
Si5061 O5221   1.623   .     S
Si5062 O5230   1.622   .     S
Si5062 O5231   1.618   .     S
Si5062 O5240   1.627   .     S
Si5062 O5247   1.628   .     S
Si5063 O5231   1.625   .     S
Si5063 O5232   1.628   .     S
Si5063 O5244   1.614   .     S
Si5063 O5245   1.624   .     S
Si5064 O5138   1.629   .     S
Si5064 O5233   1.624   .     S
Si5064 O5243   1.629   .     S
Si5064 O5253   1.623   .     S
Si5065 O5233   1.621   .     S
Si5065 O5234   1.619   .     S
Si5065 O5238   1.628   .     S
Si5065 O5239   1.622   .     S
Si5066 O5222   1.621   .     S
Si5066 O5235   1.634   .     S
Si5066 O5255   1.620   .     S
Si5067 O5219   1.621   .     S
Si5067 O5235   1.631   .     S
Si5067 O5256   1.628   .     S
Si5068 O5236   1.625   .     S
Si5068 O5237   1.624   .     S
Si5068 O5240   1.623   .     S
Si5068 O5248   1.627   .     S
Si5069 O5237   1.627   .     S
Si5069 O5238   1.630   .     S
Si5069 O5246   1.624   .     S
Si5069 O5254   1.626   .     S
Si5070 O5186   1.629   .     S
Si5070 O5187   1.621   .     S
Si5070 O5196   1.628   .     S
Si5070 O5203   1.621   .     S
Si5071 O5192   1.624   .     S
Si5071 O5193   1.625   .     S
Si5071 O5196   1.624   .     S
Si5071 O5204   1.626   .     S
Al5072 O5080   1.722   .     S
Al5072 O5081   1.721   .     S
Al5072 O5112   1.890   .     S
Al5072 O5251   1.711   .     S
O5093  Si3809  1.627   1_655 S
O5094  Si3814  1.627   1_655 S
O5096  Si1474  1.625   1_556 S
O5098  Si1475  1.627   1_556 S
O5102  Si1480  1.620   1_556 S
O5104  Si1481  1.627   1_556 S
O5112  H5265   0.999   .     S
O5225  Si3878  1.626   1_655 S
O5226  Si3884  1.629   1_655 S
O5228  Si1544  1.624   1_556 S
O5229  Si1544  1.623   1_556 S
O5229  Si1545  1.618   1_556 S
O5230  Si1545  1.619   1_556 S
O5234  Si1550  1.622   1_556 S
O5236  Si1551  1.622   1_556 S
H5266  C5272   1.089   .     S
H5267  C5273   1.087   .     S
H5268  C5270   1.090   .     S
H5269  C5271   1.088   .     S
C5270  C5271   1.373   .     D
C5270  C5272   1.429   .     S
C5271  S5274   1.723   .     S
C5272  C5273   1.372   .     D
C5273  S5274   1.722   .     S
