
#======================================================================
# CRYSTAL DATA
#----------------------------------------------------------------------
data_VESTA_phase_1

_chemical_name_common                  'ï¿½NTCAR\(5)                           '
_cell_length_a                         20.382000
_cell_length_b                         20.165199
_cell_length_c                         13.574200
_cell_angle_alpha                      90
_cell_angle_beta                       90
_cell_angle_gamma                      90
_cell_volume                           5579.086950
_space_group_name_H-M_alt              'P 1'
_space_group_IT_number                 1

loop_
_space_group_symop_operation_xyz
   'x, y, z'

loop_
   _atom_site_label
   _atom_site_occupancy
   _atom_site_fract_x
   _atom_site_fract_y
   _atom_site_fract_z
   _atom_site_adp_type
   _atom_site_B_iso_or_equiv
   _atom_site_type_symbol
   Si1         1.0     0.425366     0.842786     0.148167    Biso  1.000000 Si
   Si2         1.0     0.309555     0.810349     0.298280    Biso  1.000000 Si
   Si3         1.0     0.281615     0.846241     0.516921    Biso  1.000000 Si
   Si4         1.0     0.122865     0.850033     0.515915    Biso  1.000000 Si
   Si5         1.0     0.072341     0.815392     0.301905    Biso  1.000000 Si
   Si6         1.0     0.186634     0.844168     0.161323    Biso  1.000000 Si
   Si7         1.0     0.306444     0.650566     0.316630    Biso  1.000000 Si
   Si8         1.0     0.267058     0.614242     0.534598    Biso  1.000000 Si
   Si9         1.0     0.114350     0.612770     0.518511    Biso  1.000000 Si
   Si10        1.0     0.069962     0.657351     0.303225    Biso  1.000000 Si
   Si11        1.0     0.187290     0.610931     0.178261    Biso  1.000000 Si
   Si12        1.0     0.077853     0.727520     0.654350    Biso  1.000000 Si
   Si13        1.0     0.190979     0.755041     0.805549    Biso  1.000000 Si
   Si14        1.0     0.221423     0.722973     0.023561    Biso  1.000000 Si
   Si15        1.0     0.378966     0.722416     0.015740    Biso  1.000000 Si
   Si16        1.0     0.429096     0.754480     0.803721    Biso  1.000000 Si
   Si17        1.0     0.313309     0.728100     0.665874    Biso  1.000000 Si
   Si18        1.0     0.076866     0.956412     0.667336    Biso  1.000000 Si
   Si19        1.0     0.191768     0.912665     0.809647    Biso  1.000000 Si
   Si20        1.0     0.232610     0.958310     0.021808    Biso  1.000000 Si
   Si21        1.0     0.385979     0.959648     0.016167    Biso  1.000000 Si
   Si22        1.0     0.435050     0.912731     0.805814    Biso  1.000000 Si
   Si23        1.0     0.314908     0.952429     0.675161    Biso  1.000000 Si
   Si24        1.0     0.575838     0.342891     0.831185    Biso  1.000000 Si
   Si25        1.0     0.691654     0.312717     0.683454    Biso  1.000000 Si
   Si26        1.0     0.719302     0.346946     0.463844    Biso  1.000000 Si
   Si27        1.0     0.877457     0.349149     0.466134    Biso  1.000000 Si
   Si28        1.0     0.928139     0.313770     0.678450    Biso  1.000000 Si
   Si29        1.0     0.815363     0.340094     0.823291    Biso  1.000000 Si
   Si30        1.0     0.577506     0.112691     0.816373    Biso  1.000000 Si
   Si31        1.0     0.691528     0.154631     0.671695    Biso  1.000000 Si
   Si32        1.0     0.731348     0.110474     0.459062    Biso  1.000000 Si
   Si33        1.0     0.885045     0.110067     0.469439    Biso  1.000000 Si
   Si34        1.0     0.932227     0.155801     0.680633    Biso  1.000000 Si
   Si35        1.0     0.812442     0.113187     0.807567    Biso  1.000000 Si
   Si36        1.0     0.924755     0.227235     0.332498    Biso  1.000000 Si
   Si37        1.0     0.809499     0.256756     0.183232    Biso  1.000000 Si
   Si38        1.0     0.780386     0.221011     0.964570    Biso  1.000000 Si
   Si39        1.0     0.622438     0.221169     0.966113    Biso  1.000000 Si
   Si40        1.0     0.574480     0.255033     0.180247    Biso  1.000000 Si
   Si41        1.0     0.686359     0.226835     0.323802    Biso  1.000000 Si
   Si42        1.0     0.922665     0.457233     0.316069    Biso  1.000000 Si
   Si43        1.0     0.808075     0.415235     0.171664    Biso  1.000000 Si
   Si44        1.0     0.768819     0.456705     0.956943    Biso  1.000000 Si
   Si45        1.0     0.615247     0.457906     0.968540    Biso  1.000000 Si
   Si46        1.0     0.569514     0.411344     0.181227    Biso  1.000000 Si
   Si47        1.0     0.686978     0.456576     0.308213    Biso  1.000000 Si
   Si48        1.0     0.575621     0.726504     0.836857    Biso  1.000000 Si
   Si49        1.0     0.690048     0.755652     0.687375    Biso  1.000000 Si
   Si50        1.0     0.722631     0.721588     0.469949    Biso  1.000000 Si
   Si51        1.0     0.879863     0.720056     0.469023    Biso  1.000000 Si
   Si52        1.0     0.930683     0.755105     0.680504    Biso  1.000000 Si
   Si53        1.0     0.815450     0.728050     0.822374    Biso  1.000000 Si
   Si54        1.0     0.579066     0.958250     0.817136    Biso  1.000000 Si
   Si55        1.0     0.691582     0.913606     0.673245    Biso  1.000000 Si
   Si56        1.0     0.731772     0.954637     0.458154    Biso  1.000000 Si
   Si57        1.0     0.885565     0.957282     0.468388    Biso  1.000000 Si
   Si58        1.0     0.932361     0.912546     0.680581    Biso  1.000000 Si
   Si59        1.0     0.812957     0.956011     0.806987    Biso  1.000000 Si
   Si60        1.0     0.924863     0.841421     0.330768    Biso  1.000000 Si
   Si61        1.0     0.810088     0.811667     0.181669    Biso  1.000000 Si
   Si62        1.0     0.781270     0.847615     0.963072    Biso  1.000000 Si
   Si63        1.0     0.623644     0.849751     0.966557    Biso  1.000000 Si
   Si64        1.0     0.686980     0.838372     0.322554    Biso  1.000000 Si
   Si65        1.0     0.923824     0.612246     0.317133    Biso  1.000000 Si
   Si66        1.0     0.812354     0.653687     0.170371    Biso  1.000000 Si
   Si67        1.0     0.768957     0.611643     0.958332    Biso  1.000000 Si
   Si68        1.0     0.615688     0.610762     0.976085    Biso  1.000000 Si
   Si69        1.0     0.693040     0.613765     0.312345    Biso  1.000000 Si
   Si70        1.0     0.424936     0.229700     0.152936    Biso  1.000000 Si
   Si71        1.0     0.308963     0.258242     0.306553    Biso  1.000000 Si
   Si72        1.0     0.282030     0.217876     0.520884    Biso  1.000000 Si
   Si73        1.0     0.123595     0.218381     0.517589    Biso  1.000000 Si
   Si74        1.0     0.072683     0.254727     0.305889    Biso  1.000000 Si
   Si75        1.0     0.187401     0.228279     0.162691    Biso  1.000000 Si
   Si76        1.0     0.425286     0.452388     0.164680    Biso  1.000000 Si
   Si77        1.0     0.306706     0.415274     0.310202    Biso  1.000000 Si
   Si78        1.0     0.267373     0.459727     0.520305    Biso  1.000000 Si
   Si79        1.0     0.114331     0.459320     0.511150    Biso  1.000000 Si
   Si80        1.0     0.067544     0.412601     0.301356    Biso  1.000000 Si
   Si81        1.0     0.186021     0.454426     0.169653    Biso  1.000000 Si
   Si82        1.0     0.076065     0.342412     0.647943    Biso  1.000000 Si
   Si83        1.0     0.191444     0.313703     0.794408    Biso  1.000000 Si
   Si84        1.0     0.220066     0.346108     0.015937    Biso  1.000000 Si
   Si85        1.0     0.378410     0.346573     0.011625    Biso  1.000000 Si
   Si86        1.0     0.428356     0.315124     0.796901    Biso  1.000000 Si
   Si87        1.0     0.315241     0.342128     0.655132    Biso  1.000000 Si
   Si88        1.0     0.076789     0.111362     0.669318    Biso  1.000000 Si
   Si89        1.0     0.191538     0.154468     0.809941    Biso  1.000000 Si
   Si90        1.0     0.231654     0.114904     0.024789    Biso  1.000000 Si
   Si91        1.0     0.384968     0.114472     0.018549    Biso  1.000000 Si
   Si92        1.0     0.432850     0.156783     0.803359    Biso  1.000000 Si
   Si93        1.0     0.313607     0.108653     0.678368    Biso  1.000000 Si
   Si94        1.0     0.573206     0.813355     0.178572    Biso  1.000000 Si
   Si95        1.0     0.570362     0.655974     0.187713    Biso  1.000000 Si
   Al1         1.0     0.423609     0.609958     0.172282    Biso  1.000000 Al
   O1          1.0     0.370587     0.838692     0.234487    Biso  1.000000 O
   O2          1.0     0.312166     0.844646     0.406723    Biso  1.000000 O
   O3          1.0     0.202093     0.846641     0.512850    Biso  1.000000 O
   O4          1.0     0.093154     0.849510     0.405549    Biso  1.000000 O
   O5          1.0     0.114435     0.846758     0.211922    Biso  1.000000 O
   O6          1.0     0.240589     0.830474     0.246662    Biso  1.000000 O
   O7          1.0     0.366484     0.612154     0.267922    Biso  1.000000 O
   O8          1.0     0.305456     0.631833     0.433888    Biso  1.000000 O
   O9          1.0     0.190583     0.636299     0.525000    Biso  1.000000 O
   O10         1.0     0.088262     0.621699     0.406791    Biso  1.000000 O
   O11         1.0     0.111881     0.624754     0.213641    Biso  1.000000 O
   O12         1.0     0.235406     0.629721     0.269486    Biso  1.000000 O
   O13         1.0     0.314629     0.730678     0.307013    Biso  1.000000 O
   O14         1.0     0.085526     0.736072     0.310141    Biso  1.000000 O
   O15         1.0     0.423992     0.916620     0.099293    Biso  1.000000 O
   O16         1.0     0.413518     0.789041     0.061419    Biso  1.000000 O
   O17         1.0     0.400410     0.657155     0.072402    Biso  1.000000 O
   O18         1.0     0.199638     0.915710     0.109983    Biso  1.000000 O
   O19         1.0     0.187474     0.785568     0.079411    Biso  1.000000 O
   O20         1.0     0.203898     0.654192     0.080357    Biso  1.000000 O
   O21         1.0     0.995582     0.830751     0.278624    Biso  1.000000 O
   O22         1.0     0.992326     0.645859     0.281997    Biso  1.000000 O
   O23         1.0     0.134006     0.721121     0.738574    Biso  1.000000 O
   O24         1.0     0.191155     0.719160     0.912572    Biso  1.000000 O
   O25         1.0     0.299784     0.734968     0.019676    Biso  1.000000 O
   O26         1.0     0.401430     0.717078     0.900380    Biso  1.000000 O
   O27         1.0     0.388019     0.731399     0.706982    Biso  1.000000 O
   O28         1.0     0.262414     0.745635     0.754131    Biso  1.000000 O
   O29         1.0     0.133190     0.949810     0.750938    Biso  1.000000 O
   O30         1.0     0.194429     0.944343     0.919072    Biso  1.000000 O
   O31         1.0     0.309322     0.936907     0.009258    Biso  1.000000 O
   O32         1.0     0.420035     0.950456     0.908904    Biso  1.000000 O
   O33         1.0     0.388424     0.941990     0.718989    Biso  1.000000 O
   O34         1.0     0.261735     0.924045     0.754292    Biso  1.000000 O
   O35         1.0     0.175959     0.833912     0.816309    Biso  1.000000 O
   O36         1.0     0.422309     0.834040     0.818818    Biso  1.000000 O
   O37         1.0     0.071787     0.657861     0.594330    Biso  1.000000 O
   O38         1.0     0.095037     0.787008     0.577716    Biso  1.000000 O
   O39         1.0     0.099548     0.918899     0.567037    Biso  1.000000 O
   O40         1.0     0.300789     0.653155     0.626083    Biso  1.000000 O
   O41         1.0     0.305473     0.780326     0.575711    Biso  1.000000 O
   O42         1.0     0.307783     0.912955     0.571480    Biso  1.000000 O
   O43         1.0     0.505288     0.733970     0.781973    Biso  1.000000 O
   O44         1.0     0.511373     0.925732     0.775786    Biso  1.000000 O
   O45         1.0     0.632509     0.345184     0.747198    Biso  1.000000 O
   O46         1.0     0.693828     0.349730     0.577139    Biso  1.000000 O
   O47         1.0     0.798579     0.339457     0.459904    Biso  1.000000 O
   O48         1.0     0.901633     0.350768     0.579667    Biso  1.000000 O
   O49         1.0     0.887551     0.340648     0.773161    Biso  1.000000 O
   O50         1.0     0.761171     0.323434     0.739131    Biso  1.000000 O
   O51         1.0     0.632699     0.118204     0.730666    Biso  1.000000 O
   O52         1.0     0.691964     0.125101     0.560754    Biso  1.000000 O
   O53         1.0     0.807949     0.131227     0.474052    Biso  1.000000 O
   O54         1.0     0.916431     0.116892     0.578673    Biso  1.000000 O
   O55         1.0     0.886955     0.126535     0.769349    Biso  1.000000 O
   O56         1.0     0.761865     0.140277     0.723956    Biso  1.000000 O
   O57         1.0     0.678287     0.233976     0.669015    Biso  1.000000 O
   O58         1.0     0.917506     0.234296     0.665299    Biso  1.000000 O
   O59         1.0     0.574963     0.413408     0.889265    Biso  1.000000 O
   O60         1.0     0.587959     0.282960     0.909219    Biso  1.000000 O
   O61         1.0     0.601606     0.151750     0.914622    Biso  1.000000 O
   O62         1.0     0.802222     0.412855     0.870402    Biso  1.000000 O
   O63         1.0     0.814044     0.283780     0.908946    Biso  1.000000 O
   O64         1.0     0.800383     0.151618     0.911384    Biso  1.000000 O
   O65         1.0     0.004723     0.331120     0.698296    Biso  1.000000 O
   O66         1.0     0.008752     0.144185     0.709500    Biso  1.000000 O
   O67         1.0     0.869863     0.225924     0.246042    Biso  1.000000 O
   O68         1.0     0.806442     0.219180     0.077514    Biso  1.000000 O
   O69         1.0     0.701322     0.230803     0.961131    Biso  1.000000 O
   O70         1.0     0.597700     0.218627     0.079267    Biso  1.000000 O
   O71         1.0     0.614395     0.224198     0.273066    Biso  1.000000 O
   O72         1.0     0.740715     0.245226     0.240744    Biso  1.000000 O
   O73         1.0     0.867141     0.451368     0.230764    Biso  1.000000 O
   O74         1.0     0.806812     0.444680     0.060565    Biso  1.000000 O
   O75         1.0     0.692069     0.435081     0.968569    Biso  1.000000 O
   O76         1.0     0.585183     0.448735     0.077899    Biso  1.000000 O
   O77         1.0     0.612232     0.446319     0.268792    Biso  1.000000 O
   O78         1.0     0.737935     0.430397     0.224508    Biso  1.000000 O
   O79         1.0     0.820867     0.335865     0.168120    Biso  1.000000 O
   O80         1.0     0.590715     0.333828     0.171388    Biso  1.000000 O
   O81         1.0     0.923440     0.157369     0.392032    Biso  1.000000 O
   O82         1.0     0.912205     0.287814     0.409162    Biso  1.000000 O
   O83         1.0     0.898364     0.418999     0.415320    Biso  1.000000 O
   O84         1.0     0.700683     0.154097     0.370127    Biso  1.000000 O
   O85         1.0     0.686585     0.283025     0.409950    Biso  1.000000 O
   O86         1.0     0.697231     0.415589     0.410312    Biso  1.000000 O
   O87         1.0     0.497094     0.241830     0.199798    Biso  1.000000 O
   O88         1.0     0.492131     0.416396     0.207176    Biso  1.000000 O
   O89         1.0     0.632258     0.720840     0.752079    Biso  1.000000 O
   O90         1.0     0.689828     0.719851     0.579549    Biso  1.000000 O
   O91         1.0     0.801205     0.732562     0.477148    Biso  1.000000 O
   O92         1.0     0.911486     0.717384     0.578418    Biso  1.000000 O
   O93         1.0     0.887199     0.725531     0.770742    Biso  1.000000 O
   O94         1.0     0.760966     0.744872     0.738493    Biso  1.000000 O
   O95         1.0     0.634173     0.953306     0.730831    Biso  1.000000 O
   O96         1.0     0.692608     0.938744     0.559814    Biso  1.000000 O
   O97         1.0     0.808721     0.934776     0.472014    Biso  1.000000 O
   O98         1.0     0.916702     0.950474     0.577730    Biso  1.000000 O
   O99         1.0     0.887476     0.943438     0.768410    Biso  1.000000 O
   O100        1.0     0.762559     0.928137     0.723497    Biso  1.000000 O
   O101        1.0     0.675678     0.834535     0.676834    Biso  1.000000 O
   O102        1.0     0.916322     0.834060     0.667516    Biso  1.000000 O
   O103        1.0     0.575146     0.658754     0.901708    Biso  1.000000 O
   O104        1.0     0.587425     0.789805     0.908144    Biso  1.000000 O
   O105        1.0     0.604166     0.920079     0.915983    Biso  1.000000 O
   O106        1.0     0.800522     0.656032     0.870675    Biso  1.000000 O
   O107        1.0     0.815260     0.785197     0.906850    Biso  1.000000 O
   O108        1.0     0.801332     0.917257     0.910688    Biso  1.000000 O
   O109        1.0     0.007422     0.742280     0.706321    Biso  1.000000 O
   O110        1.0     0.009047     0.923723     0.709061    Biso  1.000000 O
   O111        1.0     0.868475     0.844197     0.246526    Biso  1.000000 O
   O112        1.0     0.806974     0.849514     0.076162    Biso  1.000000 O
   O113        1.0     0.702200     0.837732     0.959405    Biso  1.000000 O
   O114        1.0     0.600088     0.851230     0.080425    Biso  1.000000 O
   O115        1.0     0.614247     0.838570     0.274321    Biso  1.000000 O
   O116        1.0     0.740338     0.820575     0.237821    Biso  1.000000 O
   O117        1.0     0.872796     0.617884     0.225964    Biso  1.000000 O
   O118        1.0     0.808923     0.623487     0.060124    Biso  1.000000 O
   O119        1.0     0.692660     0.633169     0.975152    Biso  1.000000 O
   O120        1.0     0.587370     0.614681     0.087557    Biso  1.000000 O
   O121        1.0     0.619298     0.632418     0.277007    Biso  1.000000 O
   O122        1.0     0.744226     0.638583     0.228600    Biso  1.000000 O
   O123        1.0     0.824308     0.733172     0.165605    Biso  1.000000 O
   O124        1.0     0.583653     0.734069     0.163776    Biso  1.000000 O
   O125        1.0     0.925098     0.911020     0.390916    Biso  1.000000 O
   O126        1.0     0.912027     0.780692     0.407282    Biso  1.000000 O
   O127        1.0     0.894375     0.650015     0.413891    Biso  1.000000 O
   O128        1.0     0.700993     0.911157     0.368945    Biso  1.000000 O
   O129        1.0     0.689455     0.782256     0.409033    Biso  1.000000 O
   O130        1.0     0.706554     0.650870     0.417262    Biso  1.000000 O
   O131        1.0     0.496877     0.831218     0.198515    Biso  1.000000 O
   O132        1.0     0.497127     0.641299     0.227249    Biso  1.000000 O
   O133        1.0     0.371606     0.236638     0.240804    Biso  1.000000 O
   O134        1.0     0.309043     0.215310     0.408197    Biso  1.000000 O
   O135        1.0     0.202738     0.225290     0.521613    Biso  1.000000 O
   O136        1.0     0.097901     0.216895     0.404738    Biso  1.000000 O
   O137        1.0     0.114974     0.229344     0.212121    Biso  1.000000 O
   O138        1.0     0.241527     0.244497     0.246836    Biso  1.000000 O
   O139        1.0     0.369885     0.441388     0.250514    Biso  1.000000 O
   O140        1.0     0.304833     0.455349     0.414556    Biso  1.000000 O
   O141        1.0     0.191262     0.436637     0.509203    Biso  1.000000 O
   O142        1.0     0.085096     0.454293     0.400370    Biso  1.000000 O
   O143        1.0     0.112222     0.438710     0.210005    Biso  1.000000 O
   O144        1.0     0.238718     0.428414     0.251022    Biso  1.000000 O
   O145        1.0     0.312992     0.336534     0.334127    Biso  1.000000 O
   O146        1.0     0.081225     0.334347     0.321467    Biso  1.000000 O
   O147        1.0     0.421271     0.155847     0.105365    Biso  1.000000 O
   O148        1.0     0.411698     0.282672     0.064905    Biso  1.000000 O
   O149        1.0     0.401232     0.414135     0.064932    Biso  1.000000 O
   O150        1.0     0.200239     0.155043     0.116986    Biso  1.000000 O
   O151        1.0     0.189437     0.283585     0.075759    Biso  1.000000 O
   O152        1.0     0.197832     0.415718     0.066070    Biso  1.000000 O
   O153        1.0     0.996599     0.236453     0.283045    Biso  1.000000 O
   O154        1.0     0.990539     0.424686     0.274784    Biso  1.000000 O
   O155        1.0     0.131313     0.347110     0.733662    Biso  1.000000 O
   O156        1.0     0.192195     0.345218     0.904078    Biso  1.000000 O
   O157        1.0     0.299303     0.338944     0.016334    Biso  1.000000 O
   O158        1.0     0.402796     0.349232     0.897984    Biso  1.000000 O
   O159        1.0     0.387748     0.345908     0.704544    Biso  1.000000 O
   O160        1.0     0.260664     0.330625     0.740528    Biso  1.000000 O
   O161        1.0     0.131439     0.116596     0.755849    Biso  1.000000 O
   O162        1.0     0.191392     0.133166     0.925045    Biso  1.000000 O
   O163        1.0     0.308197     0.136755     0.010245    Biso  1.000000 O
   O164        1.0     0.420196     0.127526     0.913097    Biso  1.000000 O
   O165        1.0     0.387104     0.119522     0.722380    Biso  1.000000 O
   O166        1.0     0.261261     0.133434     0.761001    Biso  1.000000 O
   O167        1.0     0.181088     0.233915     0.798584    Biso  1.000000 O
   O168        1.0     0.416596     0.235549     0.801907    Biso  1.000000 O
   O169        1.0     0.074200     0.411382     0.585884    Biso  1.000000 O
   O170        1.0     0.091108     0.281315     0.573596    Biso  1.000000 O
   O171        1.0     0.101397     0.149685     0.570396    Biso  1.000000 O
   O172        1.0     0.304051     0.412655     0.599875    Biso  1.000000 O
   O173        1.0     0.313560     0.281808     0.576202    Biso  1.000000 O
   O174        1.0     0.303959     0.150026     0.576502    Biso  1.000000 O
   O175        1.0     0.505269     0.332493     0.778059    Biso  1.000000 O
   O176        1.0     0.509419     0.144311     0.774668    Biso  1.000000 O
   O177        1.0     0.437931     0.528192     0.140610    Biso  1.000000 O
   O178        1.0     0.194812     0.533086     0.149482    Biso  1.000000 O
   O179        1.0     0.272854     0.535447     0.559693    Biso  1.000000 O
   O180        1.0     0.107116     0.535205     0.549703    Biso  1.000000 O
   O181        1.0     0.065355     0.034079     0.641311    Biso  1.000000 O
   O182        1.0     0.302308     0.030710     0.654228    Biso  1.000000 O
   O183        1.0     0.226218     0.036385     0.049134    Biso  1.000000 O
   O184        1.0     0.390931     0.036916     0.047800    Biso  1.000000 O
   O185        1.0     0.567378     0.035409     0.845695    Biso  1.000000 O
   O186        1.0     0.800898     0.034497     0.826039    Biso  1.000000 O
   O187        1.0     0.724425     0.032614     0.430122    Biso  1.000000 O
   O188        1.0     0.892260     0.033837     0.432440    Biso  1.000000 O
   O189        1.0     0.933932     0.534579     0.344645    Biso  1.000000 O
   O190        1.0     0.699658     0.534610     0.331428    Biso  1.000000 O
   O191        1.0     0.774344     0.534354     0.925889    Biso  1.000000 O
   O192        1.0     0.608438     0.535170     0.935662    Biso  1.000000 O
   H1          1.0     0.491899     0.617256     0.348177    Biso  1.000000 H
   H2          1.0     0.577547     0.629294     0.629346    Biso  1.000000 H
   H3          1.0     0.570072     0.664547     0.451379    Biso  1.000000 H
   H4          1.0     0.414332     0.537313     0.397334    Biso  1.000000 H
   H5          1.0     0.416179     0.494306     0.573100    Biso  1.000000 H
   H6          1.0     0.498801     0.541962     0.690409    Biso  1.000000 H
   C1          1.0     0.497054     0.558820     0.614055    Biso  1.000000 C
   C2          1.0     0.540941     0.607298     0.580943    Biso  1.000000 C
   C3          1.0     0.537503     0.627716     0.483586    Biso  1.000000 C
   C4          1.0     0.449340     0.554428     0.452281    Biso  1.000000 C
   C5          1.0     0.450920     0.532093     0.549077    Biso  1.000000 C
   N1          1.0     0.492412     0.601145     0.422539    Biso  1.000000 N
