
#======================================================================
# CRYSTAL DATA
#----------------------------------------------------------------------
data_VESTA_phase_1

_chemical_name_common                  '&-1                                  '
_cell_length_a                         20.382000
_cell_length_b                         20.165199
_cell_length_c                         13.574200
_cell_angle_alpha                      90
_cell_angle_beta                       90
_cell_angle_gamma                      90
_cell_volume                           5579.086950
_space_group_name_H-M_alt              'P 1'
_space_group_IT_number                 1

loop_
_space_group_symop_operation_xyz
   'x, y, z'

loop_
   _atom_site_label
   _atom_site_occupancy
   _atom_site_fract_x
   _atom_site_fract_y
   _atom_site_fract_z
   _atom_site_adp_type
   _atom_site_B_iso_or_equiv
   _atom_site_type_symbol
   Si1         1.0     0.428112     0.842221     0.143116    Biso  1.000000 Si
   Si2         1.0     0.310866     0.814686     0.293185    Biso  1.000000 Si
   Si3         1.0     0.281611     0.851226     0.509054    Biso  1.000000 Si
   Si4         1.0     0.124311     0.851089     0.515322    Biso  1.000000 Si
   Si5         1.0     0.068505     0.814218     0.304562    Biso  1.000000 Si
   Si6         1.0     0.183330     0.845578     0.163341    Biso  1.000000 Si
   Si7         1.0     0.423939     0.613765     0.163881    Biso  1.000000 Si
   Si8         1.0     0.308540     0.654617     0.309062    Biso  1.000000 Si
   Si9         1.0     0.269805     0.614670     0.522873    Biso  1.000000 Si
   Si10        1.0     0.115729     0.613968     0.515507    Biso  1.000000 Si
   Si11        1.0     0.066420     0.656520     0.302573    Biso  1.000000 Si
   Si12        1.0     0.186359     0.609539     0.177839    Biso  1.000000 Si
   Si13        1.0     0.081665     0.729678     0.658005    Biso  1.000000 Si
   Si14        1.0     0.191741     0.757480     0.808264    Biso  1.000000 Si
   Si15        1.0     0.219528     0.723174     0.030110    Biso  1.000000 Si
   Si16        1.0     0.375609     0.722255     0.016403    Biso  1.000000 Si
   Si17        1.0     0.422321     0.756011     0.804634    Biso  1.000000 Si
   Si18        1.0     0.310644     0.731423     0.658453    Biso  1.000000 Si
   Si19        1.0     0.076452     0.957499     0.665916    Biso  1.000000 Si
   Si20        1.0     0.192471     0.915581     0.808136    Biso  1.000000 Si
   Si21        1.0     0.230982     0.958945     0.023291    Biso  1.000000 Si
   Si22        1.0     0.383824     0.959569     0.014541    Biso  1.000000 Si
   Si23        1.0     0.431535     0.914119     0.803657    Biso  1.000000 Si
   Si24        1.0     0.314471     0.955463     0.669687    Biso  1.000000 Si
   Si25        1.0     0.575138     0.341293     0.833262    Biso  1.000000 Si
   Si26        1.0     0.691719     0.311596     0.683796    Biso  1.000000 Si
   Si27        1.0     0.718449     0.350961     0.466761    Biso  1.000000 Si
   Si28        1.0     0.876686     0.351602     0.467785    Biso  1.000000 Si
   Si29        1.0     0.927515     0.313780     0.678879    Biso  1.000000 Si
   Si30        1.0     0.814731     0.339046     0.825652    Biso  1.000000 Si
   Si31        1.0     0.576427     0.113247     0.818585    Biso  1.000000 Si
   Si32        1.0     0.691492     0.153559     0.671781    Biso  1.000000 Si
   Si33        1.0     0.729503     0.111524     0.458021    Biso  1.000000 Si
   Si34        1.0     0.882724     0.111103     0.470203    Biso  1.000000 Si
   Si35        1.0     0.931037     0.155898     0.680585    Biso  1.000000 Si
   Si36        1.0     0.812228     0.113940     0.810206    Biso  1.000000 Si
   Si37        1.0     0.923214     0.228357     0.335127    Biso  1.000000 Si
   Si38        1.0     0.808145     0.256350     0.185889    Biso  1.000000 Si
   Si39        1.0     0.778554     0.221227     0.967859    Biso  1.000000 Si
   Si40        1.0     0.620716     0.220957     0.969850    Biso  1.000000 Si
   Si41        1.0     0.570947     0.255980     0.181663    Biso  1.000000 Si
   Si42        1.0     0.684391     0.230897     0.327289    Biso  1.000000 Si
   Si43        1.0     0.921765     0.458392     0.316986    Biso  1.000000 Si
   Si44        1.0     0.807689     0.413912     0.172459    Biso  1.000000 Si
   Si45        1.0     0.768968     0.456469     0.957419    Biso  1.000000 Si
   Si46        1.0     0.615700     0.458385     0.966134    Biso  1.000000 Si
   Si47        1.0     0.567010     0.413921     0.177946    Biso  1.000000 Si
   Si48        1.0     0.685835     0.456013     0.306770    Biso  1.000000 Si
   Si49        1.0     0.570566     0.726741     0.839859    Biso  1.000000 Si
   Si50        1.0     0.719124     0.718822     0.468454    Biso  1.000000 Si
   Si51        1.0     0.876448     0.720739     0.467952    Biso  1.000000 Si
   Si52        1.0     0.931256     0.756630     0.677080    Biso  1.000000 Si
   Si53        1.0     0.817744     0.726406     0.816568    Biso  1.000000 Si
   Si54        1.0     0.577758     0.959154     0.816220    Biso  1.000000 Si
   Si55        1.0     0.688393     0.918311     0.668464    Biso  1.000000 Si
   Si56        1.0     0.728993     0.957621     0.454889    Biso  1.000000 Si
   Si57        1.0     0.882757     0.958565     0.464883    Biso  1.000000 Si
   Si58        1.0     0.930835     0.914055     0.676757    Biso  1.000000 Si
   Si59        1.0     0.810893     0.957686     0.802665    Biso  1.000000 Si
   Si60        1.0     0.920082     0.842639     0.326563    Biso  1.000000 Si
   Si61        1.0     0.808005     0.813421     0.175509    Biso  1.000000 Si
   Si62        1.0     0.779582     0.844436     0.954873    Biso  1.000000 Si
   Si63        1.0     0.622981     0.848625     0.963174    Biso  1.000000 Si
   Si64        1.0     0.575693     0.813548     0.175075    Biso  1.000000 Si
   Si65        1.0     0.687371     0.838887     0.321386    Biso  1.000000 Si
   Si66        1.0     0.920973     0.613587     0.313950    Biso  1.000000 Si
   Si67        1.0     0.808079     0.655132     0.167155    Biso  1.000000 Si
   Si68        1.0     0.770583     0.612083     0.952563    Biso  1.000000 Si
   Si69        1.0     0.617395     0.610870     0.970164    Biso  1.000000 Si
   Si70        1.0     0.570955     0.655811     0.178726    Biso  1.000000 Si
   Si71        1.0     0.688566     0.614110     0.305296    Biso  1.000000 Si
   Si72        1.0     0.424037     0.228390     0.150101    Biso  1.000000 Si
   Si73        1.0     0.308087     0.257464     0.298457    Biso  1.000000 Si
   Si74        1.0     0.280275     0.221938     0.517189    Biso  1.000000 Si
   Si75        1.0     0.122304     0.220847     0.515875    Biso  1.000000 Si
   Si76        1.0     0.071077     0.255686     0.304882    Biso  1.000000 Si
   Si77        1.0     0.184394     0.229561     0.159136    Biso  1.000000 Si
   Si78        1.0     0.421917     0.458318     0.163519    Biso  1.000000 Si
   Si79        1.0     0.307674     0.415169     0.308152    Biso  1.000000 Si
   Si80        1.0     0.269113     0.459119     0.521973    Biso  1.000000 Si
   Si81        1.0     0.115183     0.460573     0.513163    Biso  1.000000 Si
   Si82        1.0     0.066810     0.413453     0.303403    Biso  1.000000 Si
   Si83        1.0     0.185424     0.453658     0.171969    Biso  1.000000 Si
   Si84        1.0     0.074986     0.343211     0.647877    Biso  1.000000 Si
   Si85        1.0     0.191048     0.313195     0.794978    Biso  1.000000 Si
   Si86        1.0     0.219385     0.346782     0.014952    Biso  1.000000 Si
   Si87        1.0     0.377600     0.349704     0.014319    Biso  1.000000 Si
   Si88        1.0     0.427471     0.314748     0.801196    Biso  1.000000 Si
   Si89        1.0     0.315118     0.342206     0.655700    Biso  1.000000 Si
   Si90        1.0     0.076872     0.112534     0.667718    Biso  1.000000 Si
   Si91        1.0     0.191625     0.154366     0.810286    Biso  1.000000 Si
   Si92        1.0     0.230735     0.114247     0.026411    Biso  1.000000 Si
   Si93        1.0     0.383755     0.112715     0.014936    Biso  1.000000 Si
   Si94        1.0     0.431250     0.156812     0.802087    Biso  1.000000 Si
   Si95        1.0     0.313137     0.112617     0.673732    Biso  1.000000 Si
   Al1         1.0     0.687589     0.756527     0.686402    Biso  1.000000 Al
   O1          1.0     0.372020     0.840529     0.227625    Biso  1.000000 O
   O2          1.0     0.316409     0.848367     0.401446    Biso  1.000000 O
   O3          1.0     0.202647     0.852675     0.494956    Biso  1.000000 O
   O4          1.0     0.085408     0.844624     0.412138    Biso  1.000000 O
   O5          1.0     0.113518     0.848970     0.220382    Biso  1.000000 O
   O6          1.0     0.241938     0.835951     0.243057    Biso  1.000000 O
   O7          1.0     0.370952     0.621514     0.252959    Biso  1.000000 O
   O8          1.0     0.311928     0.630049     0.423236    Biso  1.000000 O
   O9          1.0     0.193240     0.633774     0.504611    Biso  1.000000 O
   O10         1.0     0.080094     0.623922     0.410036    Biso  1.000000 O
   O11         1.0     0.112703     0.621120     0.220299    Biso  1.000000 O
   O12         1.0     0.239542     0.630306     0.261952    Biso  1.000000 O
   O13         1.0     0.314190     0.734446     0.303209    Biso  1.000000 O
   O14         1.0     0.083565     0.734997     0.305619    Biso  1.000000 O
   O15         1.0     0.427384     0.913609     0.087560    Biso  1.000000 O
   O16         1.0     0.416848     0.783668     0.062306    Biso  1.000000 O
   O17         1.0     0.400258     0.652803     0.065440    Biso  1.000000 O
   O18         1.0     0.192285     0.914942     0.104460    Biso  1.000000 O
   O19         1.0     0.182727     0.783719     0.086272    Biso  1.000000 O
   O20         1.0     0.198159     0.652555     0.078248    Biso  1.000000 O
   O21         1.0     0.992163     0.828788     0.279472    Biso  1.000000 O
   O22         1.0     0.989837     0.645074     0.274022    Biso  1.000000 O
   O23         1.0     0.130417     0.723098     0.752173    Biso  1.000000 O
   O24         1.0     0.198836     0.722373     0.915132    Biso  1.000000 O
   O25         1.0     0.298433     0.733223     0.041657    Biso  1.000000 O
   O26         1.0     0.387530     0.719024     0.898371    Biso  1.000000 O
   O27         1.0     0.384201     0.734642     0.704059    Biso  1.000000 O
   O28         1.0     0.258675     0.745921     0.745968    Biso  1.000000 O
   O29         1.0     0.131169     0.949684     0.751986    Biso  1.000000 O
   O30         1.0     0.197999     0.949918     0.915529    Biso  1.000000 O
   O31         1.0     0.307505     0.935091     0.019507    Biso  1.000000 O
   O32         1.0     0.410505     0.954434     0.902375    Biso  1.000000 O
   O33         1.0     0.387813     0.941418     0.711801    Biso  1.000000 O
   O34         1.0     0.260491     0.926968     0.747558    Biso  1.000000 O
   O35         1.0     0.179527     0.836590     0.820950    Biso  1.000000 O
   O36         1.0     0.417188     0.835686     0.820958    Biso  1.000000 O
   O37         1.0     0.081119     0.659849     0.598220    Biso  1.000000 O
   O38         1.0     0.108029     0.788341     0.585999    Biso  1.000000 O
   O39         1.0     0.101136     0.919728     0.566760    Biso  1.000000 O
   O40         1.0     0.299832     0.657359     0.613406    Biso  1.000000 O
   O41         1.0     0.302736     0.785424     0.570699    Biso  1.000000 O
   O42         1.0     0.306144     0.918112     0.564367    Biso  1.000000 O
   O43         1.0     0.497352     0.731965     0.791152    Biso  1.000000 O
   O44         1.0     0.508506     0.926536     0.779576    Biso  1.000000 O
   O45         1.0     0.631524     0.340577     0.749179    Biso  1.000000 O
   O46         1.0     0.693888     0.352944     0.580729    Biso  1.000000 O
   O47         1.0     0.797667     0.343900     0.461501    Biso  1.000000 O
   O48         1.0     0.900647     0.352170     0.581483    Biso  1.000000 O
   O49         1.0     0.886837     0.338018     0.775072    Biso  1.000000 O
   O50         1.0     0.760368     0.321747     0.742070    Biso  1.000000 O
   O51         1.0     0.631650     0.120886     0.733384    Biso  1.000000 O
   O52         1.0     0.691673     0.121063     0.562605    Biso  1.000000 O
   O53         1.0     0.805994     0.133898     0.471598    Biso  1.000000 O
   O54         1.0     0.912297     0.115464     0.581087    Biso  1.000000 O
   O55         1.0     0.886524     0.129971     0.772275    Biso  1.000000 O
   O56         1.0     0.761254     0.139379     0.725789    Biso  1.000000 O
   O57         1.0     0.680438     0.233292     0.662440    Biso  1.000000 O
   O58         1.0     0.918434     0.234528     0.661818    Biso  1.000000 O
   O59         1.0     0.575261     0.413076     0.888056    Biso  1.000000 O
   O60         1.0     0.585571     0.283136     0.914574    Biso  1.000000 O
   O61         1.0     0.599787     0.151833     0.917846    Biso  1.000000 O
   O62         1.0     0.802442     0.412380     0.871140    Biso  1.000000 O
   O63         1.0     0.812586     0.284394     0.913621    Biso  1.000000 O
   O64         1.0     0.798666     0.152689     0.913305    Biso  1.000000 O
   O65         1.0     0.003904     0.332474     0.698997    Biso  1.000000 O
   O66         1.0     0.007950     0.143555     0.707228    Biso  1.000000 O
   O67         1.0     0.867723     0.224736     0.249653    Biso  1.000000 O
   O68         1.0     0.804003     0.217828     0.081054    Biso  1.000000 O
   O69         1.0     0.699448     0.231419     0.964239    Biso  1.000000 O
   O70         1.0     0.596336     0.217899     0.083356    Biso  1.000000 O
   O71         1.0     0.612349     0.231249     0.276530    Biso  1.000000 O
   O72         1.0     0.739188     0.247545     0.244041    Biso  1.000000 O
   O73         1.0     0.866179     0.450356     0.232333    Biso  1.000000 O
   O74         1.0     0.805905     0.444300     0.061935    Biso  1.000000 O
   O75         1.0     0.692053     0.434655     0.968790    Biso  1.000000 O
   O76         1.0     0.584294     0.451622     0.075485    Biso  1.000000 O
   O77         1.0     0.611412     0.443347     0.267287    Biso  1.000000 O
   O78         1.0     0.737337     0.426628     0.226319    Biso  1.000000 O
   O79         1.0     0.821805     0.334822     0.167605    Biso  1.000000 O
   O80         1.0     0.580684     0.335304     0.164835    Biso  1.000000 O
   O81         1.0     0.923732     0.159596     0.397198    Biso  1.000000 O
   O82         1.0     0.910229     0.290150     0.409465    Biso  1.000000 O
   O83         1.0     0.899000     0.421344     0.417970    Biso  1.000000 O
   O84         1.0     0.696281     0.158141     0.374444    Biso  1.000000 O
   O85         1.0     0.685666     0.287194     0.412996    Biso  1.000000 O
   O86         1.0     0.695588     0.419505     0.412911    Biso  1.000000 O
   O87         1.0     0.494386     0.238914     0.203534    Biso  1.000000 O
   O88         1.0     0.490257     0.427260     0.205074    Biso  1.000000 O
   O89         1.0     0.624663     0.720844     0.755731    Biso  1.000000 O
   O90         1.0     0.680106     0.714112     0.571732    Biso  1.000000 O
   O91         1.0     0.797865     0.725881     0.482657    Biso  1.000000 O
   O92         1.0     0.912614     0.719969     0.574008    Biso  1.000000 O
   O93         1.0     0.891736     0.725408     0.769359    Biso  1.000000 O
   O94         1.0     0.764677     0.741370     0.733850    Biso  1.000000 O
   O95         1.0     0.630472     0.958271     0.727316    Biso  1.000000 O
   O96         1.0     0.688325     0.947163     0.555862    Biso  1.000000 O
   O97         1.0     0.805857     0.937004     0.470446    Biso  1.000000 O
   O98         1.0     0.916086     0.950674     0.572554    Biso  1.000000 O
   O99         1.0     0.885575     0.945347     0.763426    Biso  1.000000 O
   O100        1.0     0.759474     0.938682     0.716397    Biso  1.000000 O
   O101        1.0     0.675317     0.840690     0.671273    Biso  1.000000 O
   O102        1.0     0.915992     0.835455     0.665320    Biso  1.000000 O
   O103        1.0     0.569829     0.658396     0.906124    Biso  1.000000 O
   O104        1.0     0.579589     0.789839     0.913889    Biso  1.000000 O
   O105        1.0     0.604631     0.919493     0.912839    Biso  1.000000 O
   O106        1.0     0.806910     0.653349     0.866934    Biso  1.000000 O
   O107        1.0     0.816926     0.782159     0.904645    Biso  1.000000 O
   O108        1.0     0.798089     0.914221     0.901685    Biso  1.000000 O
   O109        1.0     0.008998     0.745787     0.698270    Biso  1.000000 O
   O110        1.0     0.007635     0.926236     0.705176    Biso  1.000000 O
   O111        1.0     0.867871     0.846669     0.236726    Biso  1.000000 O
   O112        1.0     0.803126     0.849422     0.069160    Biso  1.000000 O
   O113        1.0     0.700456     0.832511     0.949317    Biso  1.000000 O
   O114        1.0     0.604629     0.852748     0.079886    Biso  1.000000 O
   O115        1.0     0.614107     0.835806     0.274181    Biso  1.000000 O
   O116        1.0     0.739515     0.824012     0.233957    Biso  1.000000 O
   O117        1.0     0.866603     0.618785     0.227185    Biso  1.000000 O
   O118        1.0     0.806950     0.624354     0.057426    Biso  1.000000 O
   O119        1.0     0.693551     0.634542     0.961850    Biso  1.000000 O
   O120        1.0     0.593994     0.611863     0.084948    Biso  1.000000 O
   O121        1.0     0.612756     0.631587     0.274828    Biso  1.000000 O
   O122        1.0     0.737324     0.640734     0.219411    Biso  1.000000 O
   O123        1.0     0.821411     0.734277     0.163664    Biso  1.000000 O
   O124        1.0     0.583581     0.733822     0.156945    Biso  1.000000 O
   O125        1.0     0.921104     0.912964     0.384847    Biso  1.000000 O
   O126        1.0     0.901407     0.783561     0.403001    Biso  1.000000 O
   O127        1.0     0.895588     0.652142     0.411788    Biso  1.000000 O
   O128        1.0     0.698641     0.912290     0.367073    Biso  1.000000 O
   O129        1.0     0.692739     0.782286     0.405814    Biso  1.000000 O
   O130        1.0     0.703452     0.649872     0.409459    Biso  1.000000 O
   O131        1.0     0.499024     0.831547     0.194154    Biso  1.000000 O
   O132        1.0     0.493655     0.642968     0.204025    Biso  1.000000 O
   O133        1.0     0.367012     0.225968     0.233455    Biso  1.000000 O
   O134        1.0     0.305575     0.219193     0.403781    Biso  1.000000 O
   O135        1.0     0.201177     0.231151     0.521266    Biso  1.000000 O
   O136        1.0     0.098003     0.217207     0.402308    Biso  1.000000 O
   O137        1.0     0.112132     0.231440     0.208982    Biso  1.000000 O
   O138        1.0     0.238427     0.248241     0.242584    Biso  1.000000 O
   O139        1.0     0.366680     0.451730     0.249214    Biso  1.000000 O
   O140        1.0     0.306608     0.446907     0.417955    Biso  1.000000 O
   O141        1.0     0.192323     0.438445     0.511806    Biso  1.000000 O
   O142        1.0     0.085712     0.454301     0.402664    Biso  1.000000 O
   O143        1.0     0.111519     0.439738     0.212020    Biso  1.000000 O
   O144        1.0     0.237526     0.427900     0.254663    Biso  1.000000 O
   O145        1.0     0.321811     0.336167     0.315026    Biso  1.000000 O
   O146        1.0     0.080347     0.335083     0.321975    Biso  1.000000 O
   O147        1.0     0.425284     0.158600     0.090635    Biso  1.000000 O
   O148        1.0     0.412339     0.288870     0.072511    Biso  1.000000 O
   O149        1.0     0.398246     0.419896     0.064434    Biso  1.000000 O
   O150        1.0     0.197288     0.155792     0.115623    Biso  1.000000 O
   O151        1.0     0.187061     0.282982     0.069445    Biso  1.000000 O
   O152        1.0     0.196980     0.415071     0.068481    Biso  1.000000 O
   O153        1.0     0.994703     0.237966     0.284194    Biso  1.000000 O
   O154        1.0     0.990176     0.426359     0.276525    Biso  1.000000 O
   O155        1.0     0.130825     0.344993     0.733028    Biso  1.000000 O
   O156        1.0     0.193963     0.349014     0.901884    Biso  1.000000 O
   O157        1.0     0.298775     0.339869     0.019439    Biso  1.000000 O
   O158        1.0     0.402464     0.351604     0.900968    Biso  1.000000 O
   O159        1.0     0.386907     0.343375     0.707348    Biso  1.000000 O
   O160        1.0     0.259971     0.326549     0.738494    Biso  1.000000 O
   O161        1.0     0.131248     0.118027     0.754773    Biso  1.000000 O
   O162        1.0     0.192701     0.128961     0.923568    Biso  1.000000 O
   O163        1.0     0.307315     0.136699     0.015011    Biso  1.000000 O
   O164        1.0     0.413165     0.119480     0.904467    Biso  1.000000 O
   O165        1.0     0.387323     0.126284     0.713014    Biso  1.000000 O
   O166        1.0     0.261250     0.136496     0.757908    Biso  1.000000 O
   O167        1.0     0.180051     0.233993     0.806976    Biso  1.000000 O
   O168        1.0     0.415555     0.235551     0.813182    Biso  1.000000 O
   O169        1.0     0.075152     0.413600     0.589235    Biso  1.000000 O
   O170        1.0     0.087642     0.283548     0.569764    Biso  1.000000 O
   O171        1.0     0.101873     0.152100     0.569966    Biso  1.000000 O
   O172        1.0     0.303514     0.415184     0.607656    Biso  1.000000 O
   O173        1.0     0.314037     0.285677     0.570500    Biso  1.000000 O
   O174        1.0     0.301092     0.153437     0.571843    Biso  1.000000 O
   O175        1.0     0.504232     0.331477     0.780643    Biso  1.000000 O
   O176        1.0     0.508351     0.145585     0.777125    Biso  1.000000 O
   O177        1.0     0.431793     0.536000     0.135942    Biso  1.000000 O
   O178        1.0     0.196032     0.531965     0.150440    Biso  1.000000 O
   O179        1.0     0.277696     0.536731     0.552108    Biso  1.000000 O
   O180        1.0     0.108678     0.536963     0.549542    Biso  1.000000 O
   O181        1.0     0.067315     0.035283     0.638455    Biso  1.000000 O
   O182        1.0     0.303435     0.034258     0.651448    Biso  1.000000 O
   O183        1.0     0.225787     0.036324     0.054959    Biso  1.000000 O
   O184        1.0     0.389797     0.036122     0.050670    Biso  1.000000 O
   O185        1.0     0.565211     0.036122     0.847575    Biso  1.000000 O
   O186        1.0     0.803170     0.035591     0.831823    Biso  1.000000 O
   O187        1.0     0.724103     0.035180     0.421316    Biso  1.000000 O
   O188        1.0     0.889838     0.035577     0.430406    Biso  1.000000 O
   O189        1.0     0.931909     0.536166     0.342407    Biso  1.000000 O
   O190        1.0     0.697191     0.534915     0.321568    Biso  1.000000 O
   O191        1.0     0.774619     0.533592     0.925461    Biso  1.000000 O
   O192        1.0     0.609534     0.535046     0.929647    Biso  1.000000 O
   H1          1.0     0.615076     0.664949     0.577705    Biso  1.000000 H
   H2          1.0     0.482124     0.530374     0.709526    Biso  1.000000 H
   H3          1.0     0.584806     0.600650     0.716032    Biso  1.000000 H
   H4          1.0     0.556676     0.668151     0.430531    Biso  1.000000 H
   H5          1.0     0.452204     0.601956     0.411737    Biso  1.000000 H
   H6          1.0     0.414774     0.531918     0.554397    Biso  1.000000 H
   C1          1.0     0.459633     0.561156     0.559684    Biso  1.000000 C
   C2          1.0     0.496782     0.560059     0.646181    Biso  1.000000 C
   C3          1.0     0.553443     0.598034     0.651340    Biso  1.000000 C
   C4          1.0     0.537022     0.637169     0.489208    Biso  1.000000 C
   C5          1.0     0.480073     0.600035     0.480063    Biso  1.000000 C
   N1          1.0     0.571813     0.635284     0.573566    Biso  1.000000 N
