data_T11-O2-saifen\(2)
_audit_creation_date              2022-06-16
_audit_creation_method            'Materials Studio'
_symmetry_space_group_name_H-M    'P1'
_symmetry_Int_Tables_number       1
_symmetry_cell_setting            triclinic
loop_
_symmetry_equiv_pos_as_xyz
  x,y,z
_cell_length_a                    20.3820
_cell_length_b                    40.3304
_cell_length_c                    13.5742
_cell_angle_alpha                 90
_cell_angle_beta                  90
_cell_angle_gamma                 90
loop_
_atom_site_label
_atom_site_type_symbol
_atom_site_fract_x
_atom_site_fract_y
_atom_site_fract_z
_atom_site_U_iso_or_equiv
_atom_site_adp_type
_atom_site_occupancy
Si1    Si    0.42616   0.42125   0.14758   0.01267  Uiso   1.00
Si2    Si    0.30953   0.40633   0.29481   0.01267  Uiso   1.00
Si3    Si    0.28013   0.42367   0.51425   0.01267  Uiso   1.00
Si4    Si    0.12183   0.42426   0.51439   0.01267  Uiso   1.00
Si5    Si    0.07010   0.40724   0.30141   0.01267  Uiso   1.00
Si6    Si    0.18459   0.42150   0.15906   0.01267  Uiso   1.00
Si7    Si    0.41913   0.30521   0.16824   0.01267  Uiso   1.00
Si8    Si    0.30451   0.32692   0.30919   0.01267  Uiso   1.00
Si9    Si    0.26626   0.30743   0.52512   0.01267  Uiso   1.00
Si10   Si    0.11303   0.30612   0.51382   0.01267  Uiso   1.00
Si11   Si    0.06465   0.32817   0.30115   0.01267  Uiso   1.00
Si12   Si    0.18356   0.30644   0.17553   0.01267  Uiso   1.00
Si13   Si    0.07617   0.36356   0.65232   0.01267  Uiso   1.00
Si14   Si    0.19076   0.37837   0.80100   0.01267  Uiso   1.00
Si15   Si    0.21897   0.36141   0.02060   0.01267  Uiso   1.00
Si16   Si    0.37682   0.36016   0.01763   0.01267  Uiso   1.00
Si17   Si    0.42651   0.37752   0.80482   0.01267  Uiso   1.00
Si18   Si    0.31361   0.36476   0.66040   0.01267  Uiso   1.00
Si19   Si    0.07882   0.47849   0.66544   0.01267  Uiso   1.00
Si20   Si    0.19246   0.45720   0.80930   0.01267  Uiso   1.00
Si21   Si    0.23071   0.47918   0.02339   0.01267  Uiso   1.00
Si22   Si    0.38409   0.47940   0.01174   0.01267  Uiso   1.00
Si23   Si    0.43137   0.45654   0.80047   0.01267  Uiso   1.00
Si24   Si    0.31303   0.47713   0.67165   0.01267  Uiso   1.00
Si25   Si    0.57529   0.17029   0.83140   0.01267  Uiso   1.00
Si26   Si    0.69239   0.15535   0.68554   0.01267  Uiso   1.00
Si27   Si    0.71944   0.17300   0.46656   0.01267  Uiso   1.00
Si28   Si    0.87745   0.17477   0.46690   0.01267  Uiso   1.00
Si29   Si    0.92816   0.15652   0.67839   0.01267  Uiso   1.00
Si30   Si    0.81587   0.16874   0.82596   0.01267  Uiso   1.00
Si31   Si    0.57762   0.05591   0.81895   0.01267  Uiso   1.00
Si32   Si    0.69248   0.07655   0.67393   0.01267  Uiso   1.00
Si33   Si    0.73049   0.05494   0.45971   0.01267  Uiso   1.00
Si34   Si    0.88389   0.05518   0.47058   0.01267  Uiso   1.00
Si35   Si    0.93205   0.07763   0.68110   0.01267  Uiso   1.00
Si36   Si    0.81370   0.05673   0.81085   0.01267  Uiso   1.00
Si37   Si    0.92507   0.11348   0.33500   0.01267  Uiso   1.00
Si38   Si    0.80883   0.12727   0.18732   0.01267  Uiso   1.00
Si39   Si    0.77957   0.11010   0.96822   0.01267  Uiso   1.00
Si40   Si    0.62159   0.11002   0.96822   0.01267  Uiso   1.00
Si41   Si    0.57219   0.12834   0.18191   0.01267  Uiso   1.00
Si42   Si    0.68460   0.11327   0.32734   0.01267  Uiso   1.00
Si43   Si    0.92118   0.22895   0.31631   0.01267  Uiso   1.00
Si44   Si    0.80787   0.20624   0.17228   0.01267  Uiso   1.00
Si45   Si    0.76897   0.22717   0.95667   0.01267  Uiso   1.00
Si46   Si    0.61561   0.22857   0.96553   0.01267  Uiso   1.00
Si47   Si    0.56860   0.20766   0.18013   0.01267  Uiso   1.00
Si48   Si    0.68773   0.22712   0.30924   0.01267  Uiso   1.00
Si49   Si    0.57404   0.36325   0.83843   0.01267  Uiso   1.00
Si50   Si    0.69074   0.37740   0.69102   0.01267  Uiso   1.00
Si51   Si    0.72048   0.36077   0.47112   0.01267  Uiso   1.00
Si52   Si    0.87807   0.36065   0.47035   0.01267  Uiso   1.00
Si53   Si    0.92927   0.37805   0.68185   0.01267  Uiso   1.00
Si54   Si    0.81615   0.36338   0.82830   0.01267  Uiso   1.00
Si55   Si    0.57614   0.47842   0.81787   0.01267  Uiso   1.00
Si56   Si    0.69214   0.45693   0.67661   0.01267  Uiso   1.00
Si57   Si    0.73272   0.47737   0.46371   0.01267  Uiso   1.00
Si58   Si    0.88605   0.47898   0.46918   0.01267  Uiso   1.00
Si59   Si    0.93505   0.45681   0.67926   0.01267  Uiso   1.00
Si60   Si    0.81522   0.47827   0.80792   0.01267  Uiso   1.00
Si61   Si    0.92287   0.42044   0.33086   0.01267  Uiso   1.00
Si62   Si    0.80605   0.40548   0.18201   0.01267  Uiso   1.00
Si63   Si    0.77999   0.42421   0.96435   0.01267  Uiso   1.00
Si64   Si    0.62193   0.42496   0.96899   0.01267  Uiso   1.00
Si65   Si    0.57427   0.40808   0.18305   0.01267  Uiso   1.00
Si66   Si    0.68507   0.41943   0.32642   0.01267  Uiso   1.00
Si67   Si    0.91922   0.30665   0.31785   0.01267  Uiso   1.00
Si68   Si    0.80383   0.32688   0.17195   0.01267  Uiso   1.00
Si69   Si    0.76941   0.30458   0.95618   0.01267  Uiso   1.00
Si70   Si    0.61701   0.30444   0.96835   0.01267  Uiso   1.00
Si71   Si    0.69235   0.30529   0.31881   0.01267  Uiso   1.00
Si72   Si    0.42381   0.11426   0.15046   0.01267  Uiso   1.00
Si73   Si    0.30670   0.12876   0.30043   0.01267  Uiso   1.00
Si74   Si    0.28150   0.10949   0.51731   0.01267  Uiso   1.00
Si75   Si    0.12324   0.10967   0.51423   0.01267  Uiso   1.00
Si76   Si    0.07263   0.12816   0.30210   0.01267  Uiso   1.00
Si77   Si    0.18507   0.11525   0.15540   0.01267  Uiso   1.00
Si78   Si    0.42260   0.22780   0.16248   0.01267  Uiso   1.00
Si79   Si    0.30541   0.20744   0.30784   0.01267  Uiso   1.00
Si80   Si    0.26785   0.22984   0.51955   0.01267  Uiso   1.00
Si81   Si    0.11473   0.22961   0.51044   0.01267  Uiso   1.00
Si82   Si    0.06671   0.20727   0.29964   0.01267  Uiso   1.00
Si83   Si    0.18503   0.22799   0.16890   0.01267  Uiso   1.00
Si84   Si    0.07578   0.17112   0.64626   0.01267  Uiso   1.00
Si85   Si    0.19211   0.15704   0.79300   0.01267  Uiso   1.00
Si86   Si    0.22047   0.17469   0.01303   0.01267  Uiso   1.00
Si87   Si    0.37899   0.17393   0.01079   0.01267  Uiso   1.00
Si88   Si    0.42805   0.15706   0.79628   0.01267  Uiso   1.00
Si89   Si    0.31563   0.17088   0.65155   0.01267  Uiso   1.00
Si90   Si    0.07702   0.05591   0.66364   0.01267  Uiso   1.00
Si91   Si    0.19243   0.07771   0.80660   0.01267  Uiso   1.00
Si92   Si    0.23043   0.05697   0.02180   0.01267  Uiso   1.00
Si93   Si    0.38424   0.05622   0.01586   0.01267  Uiso   1.00
Si94   Si    0.43316   0.07801   0.80212   0.01267  Uiso   1.00
Si95   Si    0.31480   0.05557   0.67474   0.01267  Uiso   1.00
Al96   Al    0.56610   0.32803   0.17982   0.01267  Uiso   1.00
O97    O     0.36927   0.42216   0.23157   0.01267  Uiso   1.00
O98    O     0.30924   0.42360   0.40302   0.01267  Uiso   1.00
O99    O     0.20082   0.41983   0.51235   0.01267  Uiso   1.00
O100   O     0.09268   0.42477   0.40359   0.01267  Uiso   1.00
O101   O     0.11279   0.42187   0.21062   0.01267  Uiso   1.00
O102   O     0.23968   0.41380   0.24208   0.01267  Uiso   1.00
O103   O     0.36044   0.30669   0.25024   0.01267  Uiso   1.00
O104   O     0.30528   0.31504   0.42349   0.01267  Uiso   1.00
O105   O     0.18957   0.31791   0.51173   0.01267  Uiso   1.00
O106   O     0.08144   0.30990   0.40484   0.01267  Uiso   1.00
O107   O     0.10822   0.31213   0.21263   0.01267  Uiso   1.00
O108   O     0.23236   0.31888   0.26300   0.01267  Uiso   1.00
O109   O     0.31921   0.36645   0.30344   0.01267  Uiso   1.00
O110   O     0.08083   0.36740   0.31114   0.01267  Uiso   1.00
O111   O     0.42526   0.45595   0.08612   0.01267  Uiso   1.00
O112   O     0.41425   0.39073   0.07132   0.01267  Uiso   1.00
O113   O     0.39610   0.32533   0.06929   0.01267  Uiso   1.00
O114   O     0.19656   0.45778   0.11050   0.01267  Uiso   1.00
O115   O     0.18520   0.39311   0.07416   0.01267  Uiso   1.00
O116   O     0.19722   0.32712   0.07470   0.01267  Uiso   1.00
O117   O     0.99373   0.41572   0.27839   0.01267  Uiso   1.00
O118   O     0.98720   0.32265   0.27597   0.01267  Uiso   1.00
O119   O     0.13249   0.36163   0.73653   0.01267  Uiso   1.00
O120   O     0.19351   0.35997   0.90731   0.01267  Uiso   1.00
O121   O     0.29804   0.36607   0.02508   0.01267  Uiso   1.00
O122   O     0.39900   0.35889   0.90272   0.01267  Uiso   1.00
O123   O     0.38646   0.36428   0.70890   0.01267  Uiso   1.00
O124   O     0.26078   0.37366   0.74585   0.01267  Uiso   1.00
O125   O     0.13500   0.47617   0.74947   0.01267  Uiso   1.00
O126   O     0.19372   0.47244   0.91950   0.01267  Uiso   1.00
O127   O     0.30727   0.46814   0.01278   0.01267  Uiso   1.00
O128   O     0.41240   0.47664   0.90017   0.01267  Uiso   1.00
O129   O     0.38773   0.47021   0.70865   0.01267  Uiso   1.00
O130   O     0.26298   0.46320   0.75579   0.01267  Uiso   1.00
O131   O     0.17653   0.41778   0.81405   0.01267  Uiso   1.00
O132   O     0.41708   0.41732   0.81759   0.01267  Uiso   1.00
O133   O     0.07319   0.32865   0.59266   0.01267  Uiso   1.00
O134   O     0.09022   0.39348   0.57501   0.01267  Uiso   1.00
O135   O     0.10213   0.45913   0.56630   0.01267  Uiso   1.00
O136   O     0.29873   0.32827   0.61488   0.01267  Uiso   1.00
O137   O     0.31128   0.39238   0.57346   0.01267  Uiso   1.00
O138   O     0.30018   0.45834   0.56745   0.01267  Uiso   1.00
O139   O     0.50314   0.36845   0.78576   0.01267  Uiso   1.00
O140   O     0.50833   0.46276   0.77451   0.01267  Uiso   1.00
O141   O     0.63290   0.17126   0.74895   0.01267  Uiso   1.00
O142   O     0.69616   0.17475   0.58068   0.01267  Uiso   1.00
O143   O     0.79867   0.16993   0.45873   0.01267  Uiso   1.00
O144   O     0.90032   0.17554   0.58114   0.01267  Uiso   1.00
O145   O     0.88788   0.16852   0.77505   0.01267  Uiso   1.00
O146   O     0.76152   0.15963   0.74296   0.01267  Uiso   1.00
O147   O     0.63390   0.05878   0.73481   0.01267  Uiso   1.00
O148   O     0.69309   0.06118   0.56371   0.01267  Uiso   1.00
O149   O     0.80701   0.06642   0.47002   0.01267  Uiso   1.00
O150   O     0.91229   0.05740   0.58203   0.01267  Uiso   1.00
O151   O     0.88801   0.06459   0.77334   0.01267  Uiso   1.00
O152   O     0.76285   0.06964   0.72656   0.01267  Uiso   1.00
O153   O     0.67894   0.11614   0.66809   0.01267  Uiso   1.00
O154   O     0.91920   0.11685   0.66191   0.01267  Uiso   1.00
O155   O     0.57433   0.20515   0.89081   0.01267  Uiso   1.00
O156   O     0.58625   0.14002   0.90886   0.01267  Uiso   1.00
O157   O     0.60082   0.07476   0.91924   0.01267  Uiso   1.00
O158   O     0.80304   0.20546   0.87026   0.01267  Uiso   1.00
O159   O     0.81437   0.14156   0.91447   0.01267  Uiso   1.00
O160   O     0.80015   0.07564   0.91459   0.01267  Uiso   1.00
O161   O     0.00462   0.16578   0.69744   0.01267  Uiso   1.00
O162   O     0.00885   0.07117   0.70715   0.01267  Uiso   1.00
O163   O     0.86917   0.11167   0.24997   0.01267  Uiso   1.00
O164   O     0.80434   0.10847   0.08179   0.01267  Uiso   1.00
O165   O     0.70050   0.11506   0.96246   0.01267  Uiso   1.00
O166   O     0.59770   0.11028   0.08198   0.01267  Uiso   1.00
O167   O     0.61289   0.11405   0.27555   0.01267  Uiso   1.00
O168   O     0.74015   0.12210   0.24563   0.01267  Uiso   1.00
O169   O     0.86595   0.22514   0.23103   0.01267  Uiso   1.00
O170   O     0.80593   0.22053   0.06095   0.01267  Uiso   1.00
O171   O     0.69216   0.21649   0.96728   0.01267  Uiso   1.00
O172   O     0.58590   0.22522   0.07609   0.01267  Uiso   1.00
O173   O     0.61298   0.22406   0.26799   0.01267  Uiso   1.00
O174   O     0.73760   0.21316   0.22584   0.01267  Uiso   1.00
O175   O     0.82186   0.16666   0.17103   0.01267  Uiso   1.00
O176   O     0.58368   0.16819   0.17285   0.01267  Uiso   1.00
O177   O     0.92531   0.07908   0.39734   0.01267  Uiso   1.00
O178   O     0.91279   0.14429   0.40991   0.01267  Uiso   1.00
O179   O     0.89873   0.20969   0.41622   0.01267  Uiso   1.00
O180   O     0.69616   0.07647   0.37279   0.01267  Uiso   1.00
O181   O     0.68646   0.14065   0.41536   0.01267  Uiso   1.00
O182   O     0.69544   0.20683   0.41179   0.01267  Uiso   1.00
O183   O     0.49519   0.12014   0.20033   0.01267  Uiso   1.00
O184   O     0.49201   0.21426   0.20770   0.01267  Uiso   1.00
O185   O     0.62952   0.36196   0.75196   0.01267  Uiso   1.00
O186   O     0.69230   0.35972   0.58291   0.01267  Uiso   1.00
O187   O     0.79919   0.36676   0.46968   0.01267  Uiso   1.00
O188   O     0.90515   0.35916   0.58228   0.01267  Uiso   1.00
O189   O     0.88731   0.36501   0.77532   0.01267  Uiso   1.00
O190   O     0.75940   0.36958   0.74628   0.01267  Uiso   1.00
O191   O     0.63277   0.47513   0.73428   0.01267  Uiso   1.00
O192   O     0.69150   0.47021   0.56385   0.01267  Uiso   1.00
O193   O     0.80954   0.46811   0.48284   0.01267  Uiso   1.00
O194   O     0.92262   0.47531   0.57463   0.01267  Uiso   1.00
O195   O     0.88895   0.47260   0.76499   0.01267  Uiso   1.00
O196   O     0.76259   0.46565   0.72608   0.01267  Uiso   1.00
O197   O     0.68109   0.41708   0.67859   0.01267  Uiso   1.00
O198   O     0.91851   0.41766   0.66686   0.01267  Uiso   1.00
O199   O     0.57259   0.32831   0.89759   0.01267  Uiso   1.00
O200   O     0.58720   0.39363   0.91447   0.01267  Uiso   1.00
O201   O     0.59793   0.45930   0.91778   0.01267  Uiso   1.00
O202   O     0.80991   0.32678   0.87716   0.01267  Uiso   1.00
O203   O     0.81241   0.39164   0.91331   0.01267  Uiso   1.00
O204   O     0.80553   0.45782   0.91019   0.01267  Uiso   1.00
O205   O     0.00564   0.36968   0.70466   0.01267  Uiso   1.00
O206   O     0.01159   0.46218   0.70940   0.01267  Uiso   1.00
O207   O     0.86658   0.41963   0.24676   0.01267  Uiso   1.00
O208   O     0.80308   0.42580   0.07882   0.01267  Uiso   1.00
O209   O     0.70084   0.42131   0.95576   0.01267  Uiso   1.00
O210   O     0.60141   0.42666   0.08368   0.01267  Uiso   1.00
O211   O     0.61302   0.42343   0.27823   0.01267  Uiso   1.00
O212   O     0.73779   0.40978   0.24140   0.01267  Uiso   1.00
O213   O     0.86254   0.31001   0.23445   0.01267  Uiso   1.00
O214   O     0.80047   0.30906   0.06585   0.01267  Uiso   1.00
O215   O     0.69344   0.31655   0.95487   0.01267  Uiso   1.00
O216   O     0.59557   0.30586   0.08141   0.01267  Uiso   1.00
O217   O     0.61197   0.31044   0.28923   0.01267  Uiso   1.00
O218   O     0.73347   0.32120   0.22914   0.01267  Uiso   1.00
O219   O     0.81698   0.36621   0.15966   0.01267  Uiso   1.00
O220   O     0.58699   0.36906   0.17555   0.01267  Uiso   1.00
O221   O     0.92121   0.45598   0.38683   0.01267  Uiso   1.00
O222   O     0.91273   0.39094   0.41137   0.01267  Uiso   1.00
O223   O     0.89555   0.32554   0.41781   0.01267  Uiso   1.00
O224   O     0.70476   0.45462   0.37542   0.01267  Uiso   1.00
O225   O     0.68440   0.39007   0.40978   0.01267  Uiso   1.00
O226   O     0.70432   0.32446   0.42195   0.01267  Uiso   1.00
O227   O     0.49705   0.41736   0.19943   0.01267  Uiso   1.00
O228   O     0.48622   0.31942   0.21321   0.01267  Uiso   1.00
O229   O     0.36895   0.11612   0.23664   0.01267  Uiso   1.00
O230   O     0.30393   0.10772   0.40253   0.01267  Uiso   1.00
O231   O     0.20219   0.11257   0.52583   0.01267  Uiso   1.00
O232   O     0.10218   0.10981   0.39917   0.01267  Uiso   1.00
O233   O     0.11279   0.11604   0.20546   0.01267  Uiso   1.00
O234   O     0.23943   0.12321   0.23927   0.01267  Uiso   1.00
O235   O     0.36717   0.22173   0.24643   0.01267  Uiso   1.00
O236   O     0.30461   0.22614   0.41373   0.01267  Uiso   1.00
O237   O     0.19157   0.21825   0.50941   0.01267  Uiso   1.00
O238   O     0.08574   0.22729   0.39942   0.01267  Uiso   1.00
O239   O     0.11080   0.22059   0.20781   0.01267  Uiso   1.00
O240   O     0.23667   0.21428   0.25085   0.01267  Uiso   1.00
O241   O     0.31422   0.16793   0.32586   0.01267  Uiso   1.00
O242   O     0.07982   0.16801   0.31716   0.01267  Uiso   1.00
O243   O     0.42200   0.07797   0.09885   0.01267  Uiso   1.00
O244   O     0.41142   0.14215   0.06582   0.01267  Uiso   1.00
O245   O     0.40419   0.20791   0.06213   0.01267  Uiso   1.00
O246   O     0.19717   0.07867   0.10909   0.01267  Uiso   1.00
O247   O     0.18780   0.14301   0.06857   0.01267  Uiso   1.00
O248   O     0.19733   0.20919   0.06455   0.01267  Uiso   1.00
O249   O     0.99644   0.11811   0.28398   0.01267  Uiso   1.00
O250   O     0.98984   0.21390   0.27424   0.01267  Uiso   1.00
O251   O     0.13149   0.17290   0.73143   0.01267  Uiso   1.00
O252   O     0.19581   0.17524   0.89945   0.01267  Uiso   1.00
O253   O     0.29977   0.17120   0.01887   0.01267  Uiso   1.00
O254   O     0.40203   0.17465   0.89670   0.01267  Uiso   1.00
O255   O     0.38747   0.17159   0.70290   0.01267  Uiso   1.00
O256   O     0.26051   0.16331   0.73491   0.01267  Uiso   1.00
O257   O     0.13355   0.05975   0.74695   0.01267  Uiso   1.00
O258   O     0.19223   0.06382   0.91872   0.01267  Uiso   1.00
O259   O     0.30740   0.06746   0.00987   0.01267  Uiso   1.00
O260   O     0.41778   0.06159   0.90878   0.01267  Uiso   1.00
O261   O     0.38883   0.06041   0.71731   0.01267  Uiso   1.00
O262   O     0.26293   0.06946   0.75612   0.01267  Uiso   1.00
O263   O     0.18040   0.11749   0.80672   0.01267  Uiso   1.00
O264   O     0.41640   0.11731   0.80544   0.01267  Uiso   1.00
O265   O     0.07422   0.20577   0.58500   0.01267  Uiso   1.00
O266   O     0.08945   0.14084   0.57011   0.01267  Uiso   1.00
O267   O     0.09791   0.07513   0.56284   0.01267  Uiso   1.00
O268   O     0.30377   0.20701   0.60159   0.01267  Uiso   1.00
O269   O     0.31428   0.14210   0.56770   0.01267  Uiso   1.00
O270   O     0.30630   0.07582   0.57176   0.01267  Uiso   1.00
O271   O     0.50501   0.16536   0.77729   0.01267  Uiso   1.00
O272   O     0.51032   0.07236   0.77620   0.01267  Uiso   1.00
O273   O     0.42732   0.26659   0.13482   0.01267  Uiso   1.00
O274   O     0.19515   0.26745   0.15165   0.01267  Uiso   1.00
O275   O     0.27262   0.26835   0.55403   0.01267  Uiso   1.00
O276   O     0.10761   0.26762   0.54829   0.01267  Uiso   1.00
O277   O     0.06717   0.01707   0.63671   0.01267  Uiso   1.00
O278   O     0.30152   0.01653   0.65374   0.01267  Uiso   1.00
O279   O     0.22436   0.01814   0.05184   0.01267  Uiso   1.00
O280   O     0.39083   0.01761   0.04791   0.01267  Uiso   1.00
O281   O     0.56566   0.01720   0.84546   0.01267  Uiso   1.00
O282   O     0.80418   0.01736   0.83053   0.01267  Uiso   1.00
O283   O     0.72538   0.01597   0.43102   0.01267  Uiso   1.00
O284   O     0.89136   0.01722   0.43229   0.01267  Uiso   1.00
O285   O     0.92966   0.26782   0.34410   0.01267  Uiso   1.00
O286   O     0.70451   0.26603   0.33285   0.01267  Uiso   1.00
O287   O     0.77623   0.26584   0.92556   0.01267  Uiso   1.00
O288   O     0.61001   0.26648   0.92712   0.01267  Uiso   1.00
Si289  Si    0.42616   0.92125   0.14758   0.01267  Uiso   1.00
Si290  Si    0.30953   0.90633   0.29481   0.01267  Uiso   1.00
Si291  Si    0.28013   0.92367   0.51425   0.01267  Uiso   1.00
Si292  Si    0.12183   0.92426   0.51439   0.01267  Uiso   1.00
Si293  Si    0.07010   0.90724   0.30141   0.01267  Uiso   1.00
Si294  Si    0.18459   0.92150   0.15906   0.01267  Uiso   1.00
Si295  Si    0.41913   0.80521   0.16824   0.01267  Uiso   1.00
Si296  Si    0.30451   0.82692   0.30919   0.01267  Uiso   1.00
Si297  Si    0.26626   0.80743   0.52512   0.01267  Uiso   1.00
Si298  Si    0.11303   0.80612   0.51382   0.01267  Uiso   1.00
Si299  Si    0.06465   0.82817   0.30115   0.01267  Uiso   1.00
Si300  Si    0.18356   0.80644   0.17553   0.01267  Uiso   1.00
Si301  Si    0.07617   0.86356   0.65232   0.01267  Uiso   1.00
Si302  Si    0.19076   0.87837   0.80100   0.01267  Uiso   1.00
Si303  Si    0.21897   0.86141   0.02060   0.01267  Uiso   1.00
Si304  Si    0.37682   0.86016   0.01763   0.01267  Uiso   1.00
Si305  Si    0.42651   0.87752   0.80482   0.01267  Uiso   1.00
Si306  Si    0.31361   0.86476   0.66040   0.01267  Uiso   1.00
Si307  Si    0.07882   0.97849   0.66544   0.01267  Uiso   1.00
Si308  Si    0.19246   0.95720   0.80930   0.01267  Uiso   1.00
Si309  Si    0.23071   0.97918   0.02339   0.01267  Uiso   1.00
Si310  Si    0.38409   0.97940   0.01174   0.01267  Uiso   1.00
Si311  Si    0.43137   0.95654   0.80047   0.01267  Uiso   1.00
Si312  Si    0.31303   0.97713   0.67165   0.01267  Uiso   1.00
Si313  Si    0.57529   0.67029   0.83140   0.01267  Uiso   1.00
Si314  Si    0.69239   0.65535   0.68554   0.01267  Uiso   1.00
Si315  Si    0.71944   0.67300   0.46656   0.01267  Uiso   1.00
Si316  Si    0.87745   0.67477   0.46690   0.01267  Uiso   1.00
Si317  Si    0.92816   0.65652   0.67839   0.01267  Uiso   1.00
Si318  Si    0.81587   0.66874   0.82596   0.01267  Uiso   1.00
Si319  Si    0.57762   0.55591   0.81895   0.01267  Uiso   1.00
Si320  Si    0.69248   0.57655   0.67393   0.01267  Uiso   1.00
Si321  Si    0.73049   0.55494   0.45971   0.01267  Uiso   1.00
Si322  Si    0.88389   0.55518   0.47058   0.01267  Uiso   1.00
Si323  Si    0.93205   0.57763   0.68110   0.01267  Uiso   1.00
Si324  Si    0.81370   0.55673   0.81085   0.01267  Uiso   1.00
Si325  Si    0.92507   0.61348   0.33500   0.01267  Uiso   1.00
Si326  Si    0.80883   0.62727   0.18732   0.01267  Uiso   1.00
Si327  Si    0.77957   0.61010   0.96822   0.01267  Uiso   1.00
Si328  Si    0.62159   0.61002   0.96822   0.01267  Uiso   1.00
Si329  Si    0.57219   0.62834   0.18191   0.01267  Uiso   1.00
Si330  Si    0.68460   0.61327   0.32734   0.01267  Uiso   1.00
Si331  Si    0.92118   0.72895   0.31631   0.01267  Uiso   1.00
Si332  Si    0.80787   0.70624   0.17228   0.01267  Uiso   1.00
Si333  Si    0.76897   0.72717   0.95667   0.01267  Uiso   1.00
Si334  Si    0.61561   0.72857   0.96553   0.01267  Uiso   1.00
Si335  Si    0.56860   0.70766   0.18013   0.01267  Uiso   1.00
Si336  Si    0.68773   0.72712   0.30924   0.01267  Uiso   1.00
Si337  Si    0.57404   0.86325   0.83843   0.01267  Uiso   1.00
Si338  Si    0.69074   0.87740   0.69102   0.01267  Uiso   1.00
Si339  Si    0.72048   0.86077   0.47112   0.01267  Uiso   1.00
Si340  Si    0.87807   0.86064   0.47035   0.01267  Uiso   1.00
Si341  Si    0.92927   0.87805   0.68185   0.01267  Uiso   1.00
Si342  Si    0.81615   0.86338   0.82830   0.01267  Uiso   1.00
Si343  Si    0.57614   0.97842   0.81787   0.01267  Uiso   1.00
Si344  Si    0.69214   0.95693   0.67661   0.01267  Uiso   1.00
Si345  Si    0.73272   0.97737   0.46371   0.01267  Uiso   1.00
Si346  Si    0.88605   0.97898   0.46918   0.01267  Uiso   1.00
Si347  Si    0.93505   0.95681   0.67926   0.01267  Uiso   1.00
Si348  Si    0.81522   0.97827   0.80792   0.01267  Uiso   1.00
Si349  Si    0.92287   0.92044   0.33086   0.01267  Uiso   1.00
Si350  Si    0.80605   0.90548   0.18201   0.01267  Uiso   1.00
Si351  Si    0.77999   0.92421   0.96435   0.01267  Uiso   1.00
Si352  Si    0.62193   0.92496   0.96899   0.01267  Uiso   1.00
Si353  Si    0.57427   0.90808   0.18305   0.01267  Uiso   1.00
Si354  Si    0.68507   0.91943   0.32642   0.01267  Uiso   1.00
Si355  Si    0.91922   0.80665   0.31785   0.01267  Uiso   1.00
Si356  Si    0.80383   0.82688   0.17195   0.01267  Uiso   1.00
Si357  Si    0.76941   0.80458   0.95618   0.01267  Uiso   1.00
Si358  Si    0.61701   0.80444   0.96835   0.01267  Uiso   1.00
Si359  Si    0.69235   0.80529   0.31881   0.01267  Uiso   1.00
Si360  Si    0.42381   0.61426   0.15046   0.01267  Uiso   1.00
Si361  Si    0.30670   0.62876   0.30043   0.01267  Uiso   1.00
Si362  Si    0.28150   0.60949   0.51731   0.01267  Uiso   1.00
Si363  Si    0.12324   0.60967   0.51423   0.01267  Uiso   1.00
Si364  Si    0.07263   0.62816   0.30210   0.01267  Uiso   1.00
Si365  Si    0.18507   0.61525   0.15540   0.01267  Uiso   1.00
Si366  Si    0.42260   0.72780   0.16248   0.01267  Uiso   1.00
Si367  Si    0.30541   0.70744   0.30784   0.01267  Uiso   1.00
Si368  Si    0.26785   0.72984   0.51955   0.01267  Uiso   1.00
Si369  Si    0.11473   0.72961   0.51044   0.01267  Uiso   1.00
Si370  Si    0.06671   0.70727   0.29964   0.01267  Uiso   1.00
Si371  Si    0.18503   0.72799   0.16890   0.01267  Uiso   1.00
Si372  Si    0.07578   0.67112   0.64626   0.01267  Uiso   1.00
Si373  Si    0.19211   0.65704   0.79300   0.01267  Uiso   1.00
Si374  Si    0.22047   0.67469   0.01303   0.01267  Uiso   1.00
Si375  Si    0.37899   0.67393   0.01079   0.01267  Uiso   1.00
Si376  Si    0.42805   0.65706   0.79628   0.01267  Uiso   1.00
Si377  Si    0.31563   0.67088   0.65155   0.01267  Uiso   1.00
Si378  Si    0.07702   0.55591   0.66364   0.01267  Uiso   1.00
Si379  Si    0.19243   0.57771   0.80660   0.01267  Uiso   1.00
Si380  Si    0.23043   0.55697   0.02180   0.01267  Uiso   1.00
Si381  Si    0.38424   0.55622   0.01586   0.01267  Uiso   1.00
Si382  Si    0.43316   0.57801   0.80212   0.01267  Uiso   1.00
Si383  Si    0.31480   0.55557   0.67474   0.01267  Uiso   1.00
Al384  Al    0.56610   0.82803   0.17982   0.01267  Uiso   1.00
O385   O     0.36927   0.92216   0.23157   0.01267  Uiso   1.00
O386   O     0.30924   0.92360   0.40302   0.01267  Uiso   1.00
O387   O     0.20082   0.91983   0.51235   0.01267  Uiso   1.00
O388   O     0.09268   0.92477   0.40359   0.01267  Uiso   1.00
O389   O     0.11279   0.92187   0.21062   0.01267  Uiso   1.00
O390   O     0.23968   0.91380   0.24208   0.01267  Uiso   1.00
O391   O     0.36044   0.80669   0.25024   0.01267  Uiso   1.00
O392   O     0.30528   0.81504   0.42349   0.01267  Uiso   1.00
O393   O     0.18957   0.81791   0.51173   0.01267  Uiso   1.00
O394   O     0.08144   0.80990   0.40484   0.01267  Uiso   1.00
O395   O     0.10822   0.81213   0.21263   0.01267  Uiso   1.00
O396   O     0.23236   0.81888   0.26300   0.01267  Uiso   1.00
O397   O     0.31921   0.86645   0.30344   0.01267  Uiso   1.00
O398   O     0.08083   0.86740   0.31114   0.01267  Uiso   1.00
O399   O     0.42526   0.95595   0.08612   0.01267  Uiso   1.00
O400   O     0.41425   0.89073   0.07132   0.01267  Uiso   1.00
O401   O     0.39610   0.82533   0.06929   0.01267  Uiso   1.00
O402   O     0.19656   0.95778   0.11050   0.01267  Uiso   1.00
O403   O     0.18520   0.89311   0.07416   0.01267  Uiso   1.00
O404   O     0.19722   0.82712   0.07470   0.01267  Uiso   1.00
O405   O     0.99373   0.91572   0.27839   0.01267  Uiso   1.00
O406   O     0.98720   0.82265   0.27597   0.01267  Uiso   1.00
O407   O     0.13249   0.86163   0.73653   0.01267  Uiso   1.00
O408   O     0.19351   0.85997   0.90731   0.01267  Uiso   1.00
O409   O     0.29804   0.86607   0.02508   0.01267  Uiso   1.00
O410   O     0.39900   0.85889   0.90272   0.01267  Uiso   1.00
O411   O     0.38646   0.86428   0.70890   0.01267  Uiso   1.00
O412   O     0.26078   0.87366   0.74585   0.01267  Uiso   1.00
O413   O     0.13500   0.97617   0.74947   0.01267  Uiso   1.00
O414   O     0.19372   0.97244   0.91950   0.01267  Uiso   1.00
O415   O     0.30727   0.96814   0.01278   0.01267  Uiso   1.00
O416   O     0.41240   0.97664   0.90017   0.01267  Uiso   1.00
O417   O     0.38773   0.97021   0.70865   0.01267  Uiso   1.00
O418   O     0.26298   0.96320   0.75579   0.01267  Uiso   1.00
O419   O     0.17653   0.91778   0.81405   0.01267  Uiso   1.00
O420   O     0.41708   0.91732   0.81759   0.01267  Uiso   1.00
O421   O     0.07319   0.82865   0.59266   0.01267  Uiso   1.00
O422   O     0.09022   0.89348   0.57501   0.01267  Uiso   1.00
O423   O     0.10213   0.95913   0.56630   0.01267  Uiso   1.00
O424   O     0.29873   0.82827   0.61488   0.01267  Uiso   1.00
O425   O     0.31128   0.89238   0.57346   0.01267  Uiso   1.00
O426   O     0.30018   0.95834   0.56745   0.01267  Uiso   1.00
O427   O     0.50314   0.86845   0.78576   0.01267  Uiso   1.00
O428   O     0.50833   0.96276   0.77451   0.01267  Uiso   1.00
O429   O     0.63290   0.67126   0.74895   0.01267  Uiso   1.00
O430   O     0.69616   0.67475   0.58068   0.01267  Uiso   1.00
O431   O     0.79867   0.66993   0.45873   0.01267  Uiso   1.00
O432   O     0.90032   0.67554   0.58114   0.01267  Uiso   1.00
O433   O     0.88788   0.66852   0.77505   0.01267  Uiso   1.00
O434   O     0.76152   0.65963   0.74296   0.01267  Uiso   1.00
O435   O     0.63390   0.55878   0.73481   0.01267  Uiso   1.00
O436   O     0.69309   0.56118   0.56371   0.01267  Uiso   1.00
O437   O     0.80701   0.56642   0.47002   0.01267  Uiso   1.00
O438   O     0.91229   0.55740   0.58203   0.01267  Uiso   1.00
O439   O     0.88801   0.56459   0.77334   0.01267  Uiso   1.00
O440   O     0.76285   0.56964   0.72656   0.01267  Uiso   1.00
O441   O     0.67894   0.61614   0.66809   0.01267  Uiso   1.00
O442   O     0.91920   0.61685   0.66191   0.01267  Uiso   1.00
O443   O     0.57433   0.70515   0.89081   0.01267  Uiso   1.00
O444   O     0.58625   0.64002   0.90886   0.01267  Uiso   1.00
O445   O     0.60082   0.57476   0.91924   0.01267  Uiso   1.00
O446   O     0.80304   0.70546   0.87026   0.01267  Uiso   1.00
O447   O     0.81437   0.64156   0.91447   0.01267  Uiso   1.00
O448   O     0.80015   0.57564   0.91459   0.01267  Uiso   1.00
O449   O     0.00462   0.66578   0.69744   0.01267  Uiso   1.00
O450   O     0.00885   0.57117   0.70715   0.01267  Uiso   1.00
O451   O     0.86917   0.61167   0.24997   0.01267  Uiso   1.00
O452   O     0.80434   0.60847   0.08179   0.01267  Uiso   1.00
O453   O     0.70050   0.61506   0.96246   0.01267  Uiso   1.00
O454   O     0.59770   0.61028   0.08198   0.01267  Uiso   1.00
O455   O     0.61289   0.61405   0.27555   0.01267  Uiso   1.00
O456   O     0.74015   0.62210   0.24563   0.01267  Uiso   1.00
O457   O     0.86595   0.72514   0.23103   0.01267  Uiso   1.00
O458   O     0.80593   0.72053   0.06095   0.01267  Uiso   1.00
O459   O     0.69216   0.71649   0.96728   0.01267  Uiso   1.00
O460   O     0.58590   0.72522   0.07609   0.01267  Uiso   1.00
O461   O     0.61298   0.72406   0.26799   0.01267  Uiso   1.00
O462   O     0.73760   0.71316   0.22584   0.01267  Uiso   1.00
O463   O     0.82186   0.66666   0.17103   0.01267  Uiso   1.00
O464   O     0.58368   0.66819   0.17285   0.01267  Uiso   1.00
O465   O     0.92531   0.57908   0.39734   0.01267  Uiso   1.00
O466   O     0.91279   0.64429   0.40991   0.01267  Uiso   1.00
O467   O     0.89873   0.70969   0.41622   0.01267  Uiso   1.00
O468   O     0.69616   0.57647   0.37279   0.01267  Uiso   1.00
O469   O     0.68646   0.64065   0.41536   0.01267  Uiso   1.00
O470   O     0.69544   0.70683   0.41179   0.01267  Uiso   1.00
O471   O     0.49519   0.62014   0.20033   0.01267  Uiso   1.00
O472   O     0.49201   0.71426   0.20770   0.01267  Uiso   1.00
O473   O     0.62952   0.86196   0.75196   0.01267  Uiso   1.00
O474   O     0.69230   0.85972   0.58291   0.01267  Uiso   1.00
O475   O     0.79919   0.86676   0.46968   0.01267  Uiso   1.00
O476   O     0.90515   0.85916   0.58228   0.01267  Uiso   1.00
O477   O     0.88731   0.86501   0.77532   0.01267  Uiso   1.00
O478   O     0.75940   0.86958   0.74628   0.01267  Uiso   1.00
O479   O     0.63277   0.97513   0.73428   0.01267  Uiso   1.00
O480   O     0.69150   0.97021   0.56385   0.01267  Uiso   1.00
O481   O     0.80954   0.96811   0.48284   0.01267  Uiso   1.00
O482   O     0.92262   0.97531   0.57463   0.01267  Uiso   1.00
O483   O     0.88895   0.97260   0.76499   0.01267  Uiso   1.00
O484   O     0.76259   0.96565   0.72608   0.01267  Uiso   1.00
O485   O     0.68109   0.91708   0.67859   0.01267  Uiso   1.00
O486   O     0.91851   0.91766   0.66686   0.01267  Uiso   1.00
O487   O     0.57259   0.82831   0.89759   0.01267  Uiso   1.00
O488   O     0.58720   0.89363   0.91447   0.01267  Uiso   1.00
O489   O     0.59793   0.95930   0.91778   0.01267  Uiso   1.00
O490   O     0.80991   0.82678   0.87716   0.01267  Uiso   1.00
O491   O     0.81241   0.89164   0.91331   0.01267  Uiso   1.00
O492   O     0.80553   0.95782   0.91019   0.01267  Uiso   1.00
O493   O     0.00564   0.86968   0.70466   0.01267  Uiso   1.00
O494   O     0.01159   0.96218   0.70940   0.01267  Uiso   1.00
O495   O     0.86658   0.91963   0.24676   0.01267  Uiso   1.00
O496   O     0.80308   0.92580   0.07882   0.01267  Uiso   1.00
O497   O     0.70084   0.92131   0.95576   0.01267  Uiso   1.00
O498   O     0.60141   0.92666   0.08368   0.01267  Uiso   1.00
O499   O     0.61302   0.92343   0.27823   0.01267  Uiso   1.00
O500   O     0.73779   0.90978   0.24140   0.01267  Uiso   1.00
O501   O     0.86254   0.81001   0.23445   0.01267  Uiso   1.00
O502   O     0.80047   0.80906   0.06585   0.01267  Uiso   1.00
O503   O     0.69344   0.81655   0.95487   0.01267  Uiso   1.00
O504   O     0.59557   0.80586   0.08141   0.01267  Uiso   1.00
O505   O     0.61197   0.81044   0.28923   0.01267  Uiso   1.00
O506   O     0.73347   0.82120   0.22914   0.01267  Uiso   1.00
O507   O     0.81698   0.86621   0.15966   0.01267  Uiso   1.00
O508   O     0.58699   0.86906   0.17555   0.01267  Uiso   1.00
O509   O     0.92121   0.95598   0.38683   0.01267  Uiso   1.00
O510   O     0.91273   0.89094   0.41137   0.01267  Uiso   1.00
O511   O     0.89555   0.82554   0.41781   0.01267  Uiso   1.00
O512   O     0.70476   0.95462   0.37542   0.01267  Uiso   1.00
O513   O     0.68440   0.89007   0.40978   0.01267  Uiso   1.00
O514   O     0.70432   0.82446   0.42195   0.01267  Uiso   1.00
O515   O     0.49705   0.91736   0.19943   0.01267  Uiso   1.00
O516   O     0.48622   0.81942   0.21321   0.01267  Uiso   1.00
O517   O     0.36895   0.61612   0.23664   0.01267  Uiso   1.00
O518   O     0.30393   0.60772   0.40253   0.01267  Uiso   1.00
O519   O     0.20219   0.61257   0.52583   0.01267  Uiso   1.00
O520   O     0.10218   0.60981   0.39917   0.01267  Uiso   1.00
O521   O     0.11279   0.61604   0.20546   0.01267  Uiso   1.00
O522   O     0.23943   0.62321   0.23927   0.01267  Uiso   1.00
O523   O     0.36717   0.72173   0.24643   0.01267  Uiso   1.00
O524   O     0.30461   0.72614   0.41373   0.01267  Uiso   1.00
O525   O     0.19157   0.71825   0.50941   0.01267  Uiso   1.00
O526   O     0.08574   0.72729   0.39942   0.01267  Uiso   1.00
O527   O     0.11080   0.72059   0.20781   0.01267  Uiso   1.00
O528   O     0.23667   0.71428   0.25085   0.01267  Uiso   1.00
O529   O     0.31422   0.66793   0.32586   0.01267  Uiso   1.00
O530   O     0.07982   0.66801   0.31716   0.01267  Uiso   1.00
O531   O     0.42200   0.57797   0.09885   0.01267  Uiso   1.00
O532   O     0.41142   0.64215   0.06582   0.01267  Uiso   1.00
O533   O     0.40419   0.70791   0.06213   0.01267  Uiso   1.00
O534   O     0.19717   0.57867   0.10909   0.01267  Uiso   1.00
O535   O     0.18780   0.64301   0.06857   0.01267  Uiso   1.00
O536   O     0.19733   0.70919   0.06455   0.01267  Uiso   1.00
O537   O     0.99644   0.61811   0.28398   0.01267  Uiso   1.00
O538   O     0.98984   0.71390   0.27424   0.01267  Uiso   1.00
O539   O     0.13149   0.67290   0.73143   0.01267  Uiso   1.00
O540   O     0.19581   0.67524   0.89945   0.01267  Uiso   1.00
O541   O     0.29977   0.67120   0.01887   0.01267  Uiso   1.00
O542   O     0.40203   0.67465   0.89670   0.01267  Uiso   1.00
O543   O     0.38747   0.67159   0.70290   0.01267  Uiso   1.00
O544   O     0.26051   0.66331   0.73491   0.01267  Uiso   1.00
O545   O     0.13355   0.55975   0.74695   0.01267  Uiso   1.00
O546   O     0.19223   0.56382   0.91872   0.01267  Uiso   1.00
O547   O     0.30740   0.56746   0.00987   0.01267  Uiso   1.00
O548   O     0.41778   0.56159   0.90878   0.01267  Uiso   1.00
O549   O     0.38883   0.56041   0.71731   0.01267  Uiso   1.00
O550   O     0.26293   0.56946   0.75612   0.01267  Uiso   1.00
O551   O     0.18040   0.61749   0.80672   0.01267  Uiso   1.00
O552   O     0.41640   0.61731   0.80544   0.01267  Uiso   1.00
O553   O     0.07422   0.70577   0.58500   0.01267  Uiso   1.00
O554   O     0.08945   0.64084   0.57011   0.01267  Uiso   1.00
O555   O     0.09791   0.57513   0.56284   0.01267  Uiso   1.00
O556   O     0.30377   0.70701   0.60159   0.01267  Uiso   1.00
O557   O     0.31428   0.64210   0.56770   0.01267  Uiso   1.00
O558   O     0.30630   0.57582   0.57176   0.01267  Uiso   1.00
O559   O     0.50501   0.66536   0.77729   0.01267  Uiso   1.00
O560   O     0.51032   0.57236   0.77620   0.01267  Uiso   1.00
O561   O     0.42732   0.76659   0.13482   0.01267  Uiso   1.00
O562   O     0.19515   0.76745   0.15165   0.01267  Uiso   1.00
O563   O     0.27262   0.76835   0.55403   0.01267  Uiso   1.00
O564   O     0.10761   0.76762   0.54829   0.01267  Uiso   1.00
O565   O     0.06717   0.51707   0.63671   0.01267  Uiso   1.00
O566   O     0.30152   0.51653   0.65374   0.01267  Uiso   1.00
O567   O     0.22436   0.51814   0.05184   0.01267  Uiso   1.00
O568   O     0.39083   0.51761   0.04791   0.01267  Uiso   1.00
O569   O     0.56566   0.51720   0.84546   0.01267  Uiso   1.00
O570   O     0.80418   0.51736   0.83053   0.01267  Uiso   1.00
O571   O     0.72538   0.51597   0.43102   0.01267  Uiso   1.00
O572   O     0.89136   0.51722   0.43229   0.01267  Uiso   1.00
O573   O     0.92966   0.76782   0.34410   0.01267  Uiso   1.00
O574   O     0.70451   0.76603   0.33285   0.01267  Uiso   1.00
O575   O     0.77623   0.76584   0.92556   0.01267  Uiso   1.00
O576   O     0.61001   0.76648   0.92712   0.01267  Uiso   1.00
H577   H     0.58278   0.79999   0.34017   0.01267  Uiso   1.00
H578   H     0.39487   0.77470   0.56793   0.01267  Uiso   1.00
H579   H     0.45548   0.74306   0.42278   0.01267  Uiso   1.00
H580   H     0.47540   0.81450   0.66353   0.01267  Uiso   1.00
H581   H     0.59633   0.81096   0.59184   0.01267  Uiso   1.00
C582   C     0.49021   0.79888   0.60211   0.01267  Uiso   1.00
C583   C     0.55312   0.79769   0.56659   0.01267  Uiso   1.00
C584   C     0.44647   0.77760   0.54962   0.01267  Uiso   1.00
C585   C     0.47637   0.76071   0.47435   0.01267  Uiso   1.00
S586   S     0.55883   0.76992   0.47048   0.01267  Uiso   1.00
loop_
_geom_bond_atom_site_label_1
_geom_bond_atom_site_label_2
_geom_bond_distance
_geom_bond_site_symmetry_2
_ccdc_geom_bond_type
Si1    O97     1.626   .     S
Si1    O111    1.629   .     S
Si1    O112    1.628   .     S
Si1    O227    1.615   .     S
Si2    O97     1.620   .     S
Si2    O98     1.626   .     S
Si2    O102    1.622   .     S
Si2    O109    1.625   .     S
Si3    O98     1.622   .     S
Si3    O99     1.624   .     S
Si3    O137    1.625   .     S
Si3    O138    1.627   .     S
Si4    O99     1.620   .     S
Si4    O100    1.618   .     S
Si4    O134    1.622   .     S
Si4    O135    1.624   .     S
Si5    O100    1.624   .     S
Si5    O101    1.619   .     S
Si5    O110    1.627   .     S
Si5    O117    1.624   1_455 S
Si6    O101    1.622   .     S
Si6    O102    1.622   .     S
Si6    O114    1.623   .     S
Si6    O115    1.625   .     S
Si7    O103    1.634   .     S
Si7    O113    1.638   .     S
Si7    O228    1.604   .     S
Si7    O273    1.631   .     S
Si8    O103    1.614   .     S
Si8    O104    1.623   .     S
Si8    O108    1.632   .     S
Si8    O109    1.624   .     S
Si9    O104    1.621   .     S
Si9    O105    1.630   .     S
Si9    O136    1.622   .     S
Si9    O275    1.629   .     S
Si10   O105    1.631   .     S
Si10   O106    1.621   .     S
Si10   O133    1.622   .     S
Si10   O276    1.625   .     S
Si11   O106    1.625   .     S
Si11   O107    1.628   .     S
Si11   O110    1.622   .     S
Si11   O118    1.631   1_455 S
Si12   O107    1.632   .     S
Si12   O108    1.629   .     S
Si12   O116    1.626   .     S
Si12   O274    1.623   .     S
Si13   O119    1.623   .     S
Si13   O133    1.626   .     S
Si13   O134    1.624   .     S
Si13   O205    1.622   .     S
Si14   O119    1.623   .     S
Si14   O120    1.623   .     S
Si14   O124    1.622   .     S
Si14   O131    1.625   .     S
Si15   O115    1.624   .     S
Si15   O116    1.626   .     S
Si15   O120    1.625   1_554 S
Si15   O121    1.624   .     S
Si16   O112    1.623   .     S
Si16   O113    1.618   .     S
Si16   O121    1.626   .     S
Si16   O122    1.624   1_554 S
Si17   O122    1.625   .     S
Si17   O123    1.628   .     S
Si17   O132    1.626   .     S
Si17   O139    1.625   .     S
Si18   O123    1.625   .     S
Si18   O124    1.623   .     S
Si18   O136    1.625   .     S
Si18   O137    1.623   .     S
Si19   O125    1.620   .     S
Si19   O135    1.627   .     S
Si19   O206    1.632   .     S
Si19   O565    1.622   .     S
Si20   O125    1.618   .     S
Si20   O126    1.618   .     S
Si20   O130    1.628   .     S
Si20   O131    1.624   .     S
Si21   O114    1.620   .     S
Si21   O126    1.623   1_554 S
Si21   O127    1.629   .     S
Si21   O567    1.623   .     S
Si22   O111    1.618   .     S
Si22   O127    1.630   .     S
Si22   O128    1.624   1_554 S
Si22   O568    1.624   .     S
Si23   O128    1.625   .     S
Si23   O129    1.628   .     S
Si23   O132    1.624   .     S
Si23   O140    1.627   .     S
Si24   O129    1.628   .     S
Si24   O130    1.630   .     S
Si24   O138    1.627   .     S
Si24   O566    1.624   .     S
Si25   O141    1.622   .     S
Si25   O155    1.622   .     S
Si25   O156    1.626   .     S
Si25   O271    1.623   .     S
Si26   O141    1.619   .     S
Si26   O142    1.625   .     S
Si26   O146    1.620   .     S
Si26   O153    1.623   .     S
Si27   O142    1.621   .     S
Si27   O143    1.623   .     S
Si27   O181    1.624   .     S
Si27   O182    1.629   .     S
Si28   O143    1.621   .     S
Si28   O144    1.620   .     S
Si28   O178    1.622   .     S
Si28   O179    1.625   .     S
Si29   O144    1.629   .     S
Si29   O145    1.621   .     S
Si29   O154    1.626   .     S
Si29   O161    1.623   1_655 S
Si30   O145    1.622   .     S
Si30   O146    1.623   .     S
Si30   O158    1.620   .     S
Si30   O159    1.626   .     S
Si31   O147    1.622   .     S
Si31   O157    1.630   .     S
Si31   O272    1.631   .     S
Si31   O281    1.620   .     S
Si32   O147    1.618   .     S
Si32   O148    1.620   .     S
Si32   O152    1.627   .     S
Si32   O153    1.622   .     S
Si33   O148    1.624   .     S
Si33   O149    1.633   .     S
Si33   O180    1.623   .     S
Si33   O283    1.623   .     S
Si34   O149    1.631   .     S
Si34   O150    1.623   .     S
Si34   O177    1.621   .     S
Si34   O284    1.624   .     S
Si35   O150    1.625   .     S
Si35   O151    1.627   .     S
Si35   O154    1.624   .     S
Si35   O162    1.626   1_655 S
Si36   O151    1.628   .     S
Si36   O152    1.630   .     S
Si36   O160    1.625   .     S
Si36   O282    1.621   .     S
Si37   O163    1.624   .     S
Si37   O177    1.624   .     S
Si37   O178    1.626   .     S
Si37   O249    1.621   .     S
Si38   O163    1.623   .     S
Si38   O164    1.624   .     S
Si38   O168    1.621   .     S
Si38   O175    1.625   .     S
Si39   O159    1.626   .     S
Si39   O160    1.624   .     S
Si39   O164    1.624   1_556 S
Si39   O165    1.626   .     S
Si40   O156    1.622   .     S
Si40   O157    1.626   .     S
Si40   O165    1.623   .     S
Si40   O166    1.619   1_556 S
Si41   O166    1.625   .     S
Si41   O167    1.624   .     S
Si41   O176    1.629   .     S
Si41   O183    1.623   .     S
Si42   O167    1.623   .     S
Si42   O168    1.623   .     S
Si42   O180    1.624   .     S
Si42   O181    1.628   .     S
Si43   O169    1.623   .     S
Si43   O179    1.628   .     S
Si43   O250    1.629   .     S
Si43   O285    1.622   .     S
Si44   O169    1.619   .     S
Si44   O170    1.618   .     S
Si44   O174    1.630   .     S
Si44   O175    1.621   .     S
Si45   O158    1.620   .     S
Si45   O170    1.626   1_556 S
Si45   O171    1.630   .     S
Si45   O287    1.622   .     S
Si46   O155    1.622   .     S
Si46   O171    1.635   .     S
Si46   O172    1.623   1_556 S
Si46   O288    1.619   .     S
Si47   O172    1.618   .     S
Si47   O173    1.637   .     S
Si47   O176    1.624   .     S
Si47   O184    1.627   .     S
Si48   O173    1.628   .     S
Si48   O174    1.622   .     S
Si48   O182    1.622   .     S
Si48   O286    1.638   .     S
Si49   O139    1.626   .     S
Si49   O185    1.630   .     S
Si49   O199    1.621   .     S
Si49   O200    1.625   .     S
Si50   O185    1.620   .     S
Si50   O186    1.632   .     S
Si50   O190    1.619   .     S
Si50   O197    1.621   .     S
Si51   O186    1.623   .     S
Si51   O187    1.622   .     S
Si51   O225    1.622   .     S
Si51   O226    1.643   .     S
Si52   O187    1.627   .     S
Si52   O188    1.618   .     S
Si52   O222    1.621   .     S
Si52   O223    1.625   .     S
Si53   O188    1.628   .     S
Si53   O189    1.617   .     S
Si53   O198    1.625   .     S
Si53   O205    1.623   1_655 S
Si54   O189    1.619   .     S
Si54   O190    1.626   .     S
Si54   O202    1.622   .     S
Si54   O203    1.625   .     S
Si55   O140    1.630   .     S
Si55   O191    1.623   .     S
Si55   O201    1.622   .     S
Si55   O569    1.622   .     S
Si56   O191    1.617   .     S
Si56   O192    1.621   .     S
Si56   O196    1.624   .     S
Si56   O197    1.623   .     S
Si57   O192    1.623   .     S
Si57   O193    1.631   .     S
Si57   O224    1.614   .     S
Si57   O571    1.625   .     S
Si58   O193    1.630   .     S
Si58   O194    1.621   .     S
Si58   O221    1.620   .     S
Si58   O572    1.625   .     S
Si59   O194    1.624   .     S
Si59   O195    1.626   .     S
Si59   O198    1.623   .     S
Si59   O206    1.628   1_655 S
Si60   O195    1.628   .     S
Si60   O196    1.627   .     S
Si60   O204    1.626   .     S
Si60   O570    1.622   .     S
Si61   O117    1.621   .     S
Si61   O207    1.620   .     S
Si61   O221    1.623   .     S
Si61   O222    1.628   .     S
Si62   O207    1.620   .     S
Si62   O208    1.623   .     S
Si62   O212    1.617   .     S
Si62   O219    1.628   .     S
Si63   O203    1.626   .     S
Si63   O204    1.627   .     S
Si63   O208    1.625   1_556 S
Si63   O209    1.622   .     S
Si64   O200    1.627   .     S
Si64   O201    1.625   .     S
Si64   O209    1.625   .     S
Si64   O210    1.613   1_556 S
Si65   O210    1.638   .     S
Si65   O211    1.637   .     S
Si65   O220    1.598   .     S
Si65   O227    1.633   .     S
Si66   O211    1.616   .     S
Si66   O212    1.624   .     S
Si66   O224    1.619   .     S
Si66   O225    1.637   .     S
Si67   O118    1.630   .     S
Si67   O213    1.624   .     S
Si67   O223    1.629   .     S
Si67   O285    1.620   .     S
Si68   O213    1.617   .     S
Si68   O214    1.612   .     S
Si68   O218    1.646   .     S
Si68   O219    1.617   .     S
Si69   O202    1.622   .     S
Si69   O214    1.629   1_556 S
Si69   O215    1.622   .     S
Si69   O287    1.623   .     S
Si70   O199    1.634   .     S
Si70   O215    1.642   .     S
Si70   O216    1.596   1_556 S
Si70   O288    1.637   .     S
Si71   O217    1.700   .     S
Si71   O218    1.610   .     S
Si71   O226    1.618   .     S
Si71   O286    1.614   .     S
Si72   O183    1.623   .     S
Si72   O229    1.619   .     S
Si72   O243    1.624   .     S
Si72   O244    1.627   .     S
Si73   O229    1.618   .     S
Si73   O230    1.625   .     S
Si73   O234    1.619   .     S
Si73   O241    1.624   .     S
Si74   O230    1.625   .     S
Si74   O231    1.625   .     S
Si74   O269    1.627   .     S
Si74   O270    1.626   .     S
Si75   O231    1.621   .     S
Si75   O232    1.620   .     S
Si75   O266    1.622   .     S
Si75   O267    1.625   .     S
Si76   O232    1.627   .     S
Si76   O233    1.621   .     S
Si76   O242    1.627   .     S
Si76   O249    1.624   1_455 S
Si77   O233    1.622   .     S
Si77   O234    1.622   .     S
Si77   O246    1.623   .     S
Si77   O247    1.626   .     S
Si78   O184    1.637   .     S
Si78   O235    1.622   .     S
Si78   O245    1.626   .     S
Si78   O273    1.611   .     S
Si79   O235    1.615   .     S
Si79   O236    1.624   .     S
Si79   O240    1.625   .     S
Si79   O241    1.622   .     S
Si80   O236    1.626   .     S
Si80   O237    1.629   .     S
Si80   O268    1.620   .     S
Si80   O275    1.626   .     S
Si81   O237    1.632   .     S
Si81   O238    1.622   .     S
Si81   O265    1.621   .     S
Si81   O276    1.624   .     S
Si82   O238    1.624   .     S
Si82   O239    1.627   .     S
Si82   O242    1.623   .     S
Si82   O250    1.627   1_455 S
Si83   O239    1.629   .     S
Si83   O240    1.629   .     S
Si83   O248    1.627   .     S
Si83   O274    1.621   .     S
Si84   O161    1.622   .     S
Si84   O251    1.623   .     S
Si84   O265    1.626   .     S
Si84   O266    1.625   .     S
Si85   O251    1.624   .     S
Si85   O252    1.623   .     S
Si85   O256    1.621   .     S
Si85   O263    1.623   .     S
Si86   O247    1.625   .     S
Si86   O248    1.628   .     S
Si86   O252    1.622   1_554 S
Si86   O253    1.625   .     S
Si87   O244    1.624   .     S
Si87   O245    1.622   .     S
Si87   O253    1.622   .     S
Si87   O254    1.618   1_554 S
Si88   O254    1.626   .     S
Si88   O255    1.623   .     S
Si88   O264    1.625   .     S
Si88   O271    1.624   .     S
Si89   O255    1.623   .     S
Si89   O256    1.623   .     S
Si89   O268    1.625   .     S
Si89   O269    1.627   .     S
Si90   O162    1.630   .     S
Si90   O257    1.623   .     S
Si90   O267    1.628   .     S
Si90   O277    1.621   .     S
Si91   O257    1.620   .     S
Si91   O258    1.621   .     S
Si91   O262    1.626   .     S
Si91   O263    1.623   .     S
Si92   O246    1.622   .     S
Si92   O258    1.625   1_554 S
Si92   O259    1.633   .     S
Si92   O279    1.623   .     S
Si93   O243    1.623   .     S
Si93   O259    1.633   .     S
Si93   O260    1.620   1_554 S
Si93   O280    1.622   .     S
Si94   O260    1.622   .     S
Si94   O261    1.628   .     S
Si94   O264    1.622   .     S
Si94   O272    1.627   .     S
Si95   O261    1.628   .     S
Si95   O262    1.628   .     S
Si95   O270    1.628   .     S
Si95   O278    1.623   .     S
Al96   O216    1.716   .     S
Al96   O217    1.893   .     S
Al96   O220    1.709   .     S
Al96   O228    1.725   .     S
O117   Si5     1.624   1_655 S
O118   Si11    1.631   1_655 S
O120   Si15    1.625   1_556 S
O122   Si16    1.624   1_556 S
O126   Si21    1.623   1_556 S
O128   Si22    1.624   1_556 S
O161   Si29    1.623   1_455 S
O162   Si35    1.626   1_455 S
O164   Si39    1.624   1_554 S
O166   Si40    1.619   1_554 S
O170   Si45    1.626   1_554 S
O172   Si46    1.623   1_554 S
O205   Si53    1.623   1_455 S
O206   Si59    1.628   1_455 S
O208   Si63    1.625   1_554 S
O210   Si64    1.613   1_554 S
O214   Si69    1.629   1_554 S
O216   Si70    1.596   1_554 S
O249   Si76    1.624   1_655 S
O250   Si82    1.627   1_655 S
O252   Si86    1.622   1_556 S
O254   Si87    1.618   1_556 S
O258   Si92    1.625   1_556 S
O260   Si93    1.620   1_556 S
O277   Si307   1.622   1_545 S
O278   Si312   1.624   1_545 S
O279   Si309   1.623   1_545 S
O280   Si310   1.624   1_545 S
O281   Si343   1.622   1_545 S
O282   Si348   1.622   1_545 S
O283   Si345   1.625   1_545 S
O284   Si346   1.625   1_545 S
Si289  O385    1.626   .     S
Si289  O399    1.629   .     S
Si289  O400    1.628   .     S
Si289  O515    1.615   .     S
Si290  O385    1.620   .     S
Si290  O386    1.626   .     S
Si290  O390    1.622   .     S
Si290  O397    1.625   .     S
Si291  O386    1.622   .     S
Si291  O387    1.624   .     S
Si291  O425    1.625   .     S
Si291  O426    1.627   .     S
Si292  O387    1.620   .     S
Si292  O388    1.618   .     S
Si292  O422    1.622   .     S
Si292  O423    1.624   .     S
Si293  O388    1.624   .     S
Si293  O389    1.619   .     S
Si293  O398    1.627   .     S
Si293  O405    1.624   1_455 S
Si294  O389    1.622   .     S
Si294  O390    1.622   .     S
Si294  O402    1.623   .     S
Si294  O403    1.625   .     S
Si295  O391    1.634   .     S
Si295  O401    1.638   .     S
Si295  O516    1.604   .     S
Si295  O561    1.631   .     S
Si296  O391    1.614   .     S
Si296  O392    1.623   .     S
Si296  O396    1.632   .     S
Si296  O397    1.624   .     S
Si297  O392    1.621   .     S
Si297  O393    1.630   .     S
Si297  O424    1.622   .     S
Si297  O563    1.629   .     S
Si298  O393    1.631   .     S
Si298  O394    1.621   .     S
Si298  O421    1.622   .     S
Si298  O564    1.625   .     S
Si299  O394    1.625   .     S
Si299  O395    1.628   .     S
Si299  O398    1.622   .     S
Si299  O406    1.631   1_455 S
Si300  O395    1.632   .     S
Si300  O396    1.629   .     S
Si300  O404    1.626   .     S
Si300  O562    1.623   .     S
Si301  O407    1.623   .     S
Si301  O421    1.626   .     S
Si301  O422    1.624   .     S
Si301  O493    1.622   .     S
Si302  O407    1.623   .     S
Si302  O408    1.623   .     S
Si302  O412    1.622   .     S
Si302  O419    1.625   .     S
Si303  O403    1.624   .     S
Si303  O404    1.626   .     S
Si303  O408    1.625   1_554 S
Si303  O409    1.624   .     S
Si304  O400    1.623   .     S
Si304  O401    1.618   .     S
Si304  O409    1.626   .     S
Si304  O410    1.624   1_554 S
Si305  O410    1.625   .     S
Si305  O411    1.628   .     S
Si305  O420    1.626   .     S
Si305  O427    1.625   .     S
Si306  O411    1.625   .     S
Si306  O412    1.623   .     S
Si306  O424    1.625   .     S
Si306  O425    1.623   .     S
Si307  O413    1.620   .     S
Si307  O423    1.627   .     S
Si307  O494    1.632   .     S
Si307  O277    1.622   1_565 S
Si308  O413    1.618   .     S
Si308  O414    1.618   .     S
Si308  O418    1.628   .     S
Si308  O419    1.624   .     S
Si309  O402    1.620   .     S
Si309  O414    1.623   1_554 S
Si309  O415    1.629   .     S
Si309  O279    1.623   1_565 S
Si310  O399    1.618   .     S
Si310  O415    1.630   .     S
Si310  O416    1.624   1_554 S
Si310  O280    1.624   1_565 S
Si311  O416    1.625   .     S
Si311  O417    1.628   .     S
Si311  O420    1.624   .     S
Si311  O428    1.627   .     S
Si312  O417    1.628   .     S
Si312  O418    1.630   .     S
Si312  O426    1.627   .     S
Si312  O278    1.624   1_565 S
Si313  O429    1.622   .     S
Si313  O443    1.622   .     S
Si313  O444    1.626   .     S
Si313  O559    1.623   .     S
Si314  O429    1.619   .     S
Si314  O430    1.625   .     S
Si314  O434    1.620   .     S
Si314  O441    1.623   .     S
Si315  O430    1.621   .     S
Si315  O431    1.623   .     S
Si315  O469    1.624   .     S
Si315  O470    1.629   .     S
Si316  O431    1.621   .     S
Si316  O432    1.620   .     S
Si316  O466    1.622   .     S
Si316  O467    1.625   .     S
Si317  O432    1.629   .     S
Si317  O433    1.621   .     S
Si317  O442    1.626   .     S
Si317  O449    1.623   1_655 S
Si318  O433    1.622   .     S
Si318  O434    1.623   .     S
Si318  O446    1.620   .     S
Si318  O447    1.626   .     S
Si319  O435    1.622   .     S
Si319  O445    1.630   .     S
Si319  O560    1.631   .     S
Si319  O569    1.620   .     S
Si320  O435    1.618   .     S
Si320  O436    1.620   .     S
Si320  O440    1.627   .     S
Si320  O441    1.622   .     S
Si321  O436    1.624   .     S
Si321  O437    1.633   .     S
Si321  O468    1.623   .     S
Si321  O571    1.623   .     S
Si322  O437    1.631   .     S
Si322  O438    1.623   .     S
Si322  O465    1.621   .     S
Si322  O572    1.624   .     S
Si323  O438    1.625   .     S
Si323  O439    1.627   .     S
Si323  O442    1.624   .     S
Si323  O450    1.626   1_655 S
Si324  O439    1.628   .     S
Si324  O440    1.630   .     S
Si324  O448    1.625   .     S
Si324  O570    1.621   .     S
Si325  O451    1.624   .     S
Si325  O465    1.624   .     S
Si325  O466    1.626   .     S
Si325  O537    1.621   .     S
Si326  O451    1.623   .     S
Si326  O452    1.624   .     S
Si326  O456    1.621   .     S
Si326  O463    1.625   .     S
Si327  O447    1.626   .     S
Si327  O448    1.624   .     S
Si327  O452    1.624   1_556 S
Si327  O453    1.626   .     S
Si328  O444    1.622   .     S
Si328  O445    1.626   .     S
Si328  O453    1.623   .     S
Si328  O454    1.619   1_556 S
Si329  O454    1.625   .     S
Si329  O455    1.624   .     S
Si329  O464    1.629   .     S
Si329  O471    1.623   .     S
Si330  O455    1.623   .     S
Si330  O456    1.623   .     S
Si330  O468    1.624   .     S
Si330  O469    1.628   .     S
Si331  O457    1.623   .     S
Si331  O467    1.628   .     S
Si331  O538    1.629   .     S
Si331  O573    1.622   .     S
Si332  O457    1.619   .     S
Si332  O458    1.618   .     S
Si332  O462    1.630   .     S
Si332  O463    1.621   .     S
Si333  O446    1.620   .     S
Si333  O458    1.626   1_556 S
Si333  O459    1.630   .     S
Si333  O575    1.622   .     S
Si334  O443    1.622   .     S
Si334  O459    1.635   .     S
Si334  O460    1.623   1_556 S
Si334  O576    1.619   .     S
Si335  O460    1.618   .     S
Si335  O461    1.637   .     S
Si335  O464    1.624   .     S
Si335  O472    1.627   .     S
Si336  O461    1.628   .     S
Si336  O462    1.622   .     S
Si336  O470    1.622   .     S
Si336  O574    1.638   .     S
Si337  O427    1.626   .     S
Si337  O473    1.630   .     S
Si337  O487    1.621   .     S
Si337  O488    1.625   .     S
Si338  O473    1.620   .     S
Si338  O474    1.632   .     S
Si338  O478    1.619   .     S
Si338  O485    1.621   .     S
Si339  O474    1.623   .     S
Si339  O475    1.622   .     S
Si339  O513    1.622   .     S
Si339  O514    1.643   .     S
Si340  O475    1.627   .     S
Si340  O476    1.618   .     S
Si340  O510    1.621   .     S
Si340  O511    1.625   .     S
Si341  O476    1.628   .     S
Si341  O477    1.617   .     S
Si341  O486    1.625   .     S
Si341  O493    1.623   1_655 S
Si342  O477    1.619   .     S
Si342  O478    1.626   .     S
Si342  O490    1.622   .     S
Si342  O491    1.625   .     S
Si343  O428    1.630   .     S
Si343  O479    1.623   .     S
Si343  O489    1.622   .     S
Si343  O281    1.622   1_565 S
Si344  O479    1.617   .     S
Si344  O480    1.621   .     S
Si344  O484    1.624   .     S
Si344  O485    1.623   .     S
Si345  O480    1.623   .     S
Si345  O481    1.631   .     S
Si345  O512    1.614   .     S
Si345  O283    1.625   1_565 S
Si346  O481    1.630   .     S
Si346  O482    1.621   .     S
Si346  O509    1.620   .     S
Si346  O284    1.625   1_565 S
Si347  O482    1.624   .     S
Si347  O483    1.626   .     S
Si347  O486    1.623   .     S
Si347  O494    1.628   1_655 S
Si348  O483    1.628   .     S
Si348  O484    1.627   .     S
Si348  O492    1.626   .     S
Si348  O282    1.622   1_565 S
Si349  O405    1.621   .     S
Si349  O495    1.620   .     S
Si349  O509    1.623   .     S
Si349  O510    1.628   .     S
Si350  O495    1.620   .     S
Si350  O496    1.623   .     S
Si350  O500    1.617   .     S
Si350  O507    1.628   .     S
Si351  O491    1.626   .     S
Si351  O492    1.627   .     S
Si351  O496    1.625   1_556 S
Si351  O497    1.622   .     S
Si352  O488    1.627   .     S
Si352  O489    1.625   .     S
Si352  O497    1.625   .     S
Si352  O498    1.613   1_556 S
Si353  O498    1.638   .     S
Si353  O499    1.637   .     S
Si353  O508    1.598   .     S
Si353  O515    1.633   .     S
Si354  O499    1.616   .     S
Si354  O500    1.624   .     S
Si354  O512    1.619   .     S
Si354  O513    1.637   .     S
Si355  O406    1.630   .     S
Si355  O501    1.624   .     S
Si355  O511    1.629   .     S
Si355  O573    1.620   .     S
Si356  O501    1.617   .     S
Si356  O502    1.612   .     S
Si356  O506    1.646   .     S
Si356  O507    1.617   .     S
Si357  O490    1.622   .     S
Si357  O502    1.629   1_556 S
Si357  O503    1.622   .     S
Si357  O575    1.623   .     S
Si358  O487    1.634   .     S
Si358  O503    1.642   .     S
Si358  O504    1.596   1_556 S
Si358  O576    1.637   .     S
Si359  O505    1.700   .     S
Si359  O506    1.610   .     S
Si359  O514    1.618   .     S
Si359  O574    1.614   .     S
Si360  O471    1.623   .     S
Si360  O517    1.619   .     S
Si360  O531    1.624   .     S
Si360  O532    1.627   .     S
Si361  O517    1.618   .     S
Si361  O518    1.625   .     S
Si361  O522    1.619   .     S
Si361  O529    1.624   .     S
Si362  O518    1.625   .     S
Si362  O519    1.625   .     S
Si362  O557    1.627   .     S
Si362  O558    1.626   .     S
Si363  O519    1.621   .     S
Si363  O520    1.620   .     S
Si363  O554    1.622   .     S
Si363  O555    1.625   .     S
Si364  O520    1.627   .     S
Si364  O521    1.621   .     S
Si364  O530    1.627   .     S
Si364  O537    1.624   1_455 S
Si365  O521    1.622   .     S
Si365  O522    1.622   .     S
Si365  O534    1.623   .     S
Si365  O535    1.626   .     S
Si366  O472    1.637   .     S
Si366  O523    1.622   .     S
Si366  O533    1.626   .     S
Si366  O561    1.611   .     S
Si367  O523    1.615   .     S
Si367  O524    1.624   .     S
Si367  O528    1.625   .     S
Si367  O529    1.622   .     S
Si368  O524    1.626   .     S
Si368  O525    1.629   .     S
Si368  O556    1.620   .     S
Si368  O563    1.626   .     S
Si369  O525    1.632   .     S
Si369  O526    1.622   .     S
Si369  O553    1.621   .     S
Si369  O564    1.624   .     S
Si370  O526    1.624   .     S
Si370  O527    1.627   .     S
Si370  O530    1.623   .     S
Si370  O538    1.627   1_455 S
Si371  O527    1.629   .     S
Si371  O528    1.629   .     S
Si371  O536    1.627   .     S
Si371  O562    1.621   .     S
Si372  O449    1.622   .     S
Si372  O539    1.623   .     S
Si372  O553    1.626   .     S
Si372  O554    1.625   .     S
Si373  O539    1.624   .     S
Si373  O540    1.623   .     S
Si373  O544    1.621   .     S
Si373  O551    1.623   .     S
Si374  O535    1.625   .     S
Si374  O536    1.628   .     S
Si374  O540    1.622   1_554 S
Si374  O541    1.625   .     S
Si375  O532    1.624   .     S
Si375  O533    1.622   .     S
Si375  O541    1.622   .     S
Si375  O542    1.618   1_554 S
Si376  O542    1.626   .     S
Si376  O543    1.623   .     S
Si376  O552    1.625   .     S
Si376  O559    1.624   .     S
Si377  O543    1.623   .     S
Si377  O544    1.623   .     S
Si377  O556    1.625   .     S
Si377  O557    1.627   .     S
Si378  O450    1.630   .     S
Si378  O545    1.623   .     S
Si378  O555    1.628   .     S
Si378  O565    1.621   .     S
Si379  O545    1.620   .     S
Si379  O546    1.621   .     S
Si379  O550    1.626   .     S
Si379  O551    1.623   .     S
Si380  O534    1.622   .     S
Si380  O546    1.625   1_554 S
Si380  O547    1.633   .     S
Si380  O567    1.623   .     S
Si381  O531    1.623   .     S
Si381  O547    1.633   .     S
Si381  O548    1.620   1_554 S
Si381  O568    1.622   .     S
Si382  O548    1.622   .     S
Si382  O549    1.628   .     S
Si382  O552    1.622   .     S
Si382  O560    1.627   .     S
Si383  O549    1.628   .     S
Si383  O550    1.628   .     S
Si383  O558    1.628   .     S
Si383  O566    1.623   .     S
Al384  O504    1.716   .     S
Al384  O505    1.893   .     S
Al384  O508    1.709   .     S
Al384  O516    1.725   .     S
O405   Si293   1.624   1_655 S
O406   Si299   1.631   1_655 S
O408   Si303   1.625   1_556 S
O410   Si304   1.624   1_556 S
O414   Si309   1.623   1_556 S
O416   Si310   1.624   1_556 S
O449   Si317   1.623   1_455 S
O450   Si323   1.626   1_455 S
O452   Si327   1.624   1_554 S
O454   Si328   1.619   1_554 S
O458   Si333   1.626   1_554 S
O460   Si334   1.623   1_554 S
O493   Si341   1.623   1_455 S
O494   Si347   1.628   1_455 S
O496   Si351   1.625   1_554 S
O498   Si352   1.613   1_554 S
O502   Si357   1.629   1_554 S
O504   Si358   1.596   1_554 S
O505   H577    1.004   .     S
O537   Si364   1.624   1_655 S
O538   Si370   1.627   1_655 S
O540   Si374   1.622   1_556 S
O542   Si375   1.618   1_556 S
O546   Si380   1.625   1_556 S
O548   Si381   1.620   1_556 S
H578   C584    1.087   .     S
H579   C585    1.086   .     S
H580   C582    1.088   .     S
H581   C583    1.086   .     S
C582   C583    1.370   .     D
C582   C584    1.429   .     S
C583   S586    1.724   .     S
C584   C585    1.371   .     D
C585   S586    1.722   .     S
