data_T3-O1-saifen
_audit_creation_date              2022-06-16
_audit_creation_method            'Materials Studio'
_symmetry_space_group_name_H-M    'P1'
_symmetry_Int_Tables_number       1
_symmetry_cell_setting            triclinic
loop_
_symmetry_equiv_pos_as_xyz
  x,y,z
_cell_length_a                    20.3820
_cell_length_b                    40.3304
_cell_length_c                    13.5742
_cell_angle_alpha                 90
_cell_angle_beta                  90
_cell_angle_gamma                 90
loop_
_atom_site_label
_atom_site_type_symbol
_atom_site_fract_x
_atom_site_fract_y
_atom_site_fract_z
_atom_site_U_iso_or_equiv
_atom_site_adp_type
_atom_site_occupancy
Si1    Si    0.42369   0.42088   0.14299   0.01267  Uiso   1.00
Si2    Si    0.30621   0.40631   0.28953   0.01267  Uiso   1.00
Si3    Si    0.27935   0.42419   0.50977   0.01267  Uiso   1.00
Si4    Si    0.12054   0.42479   0.51093   0.01267  Uiso   1.00
Si5    Si    0.06960   0.40711   0.29694   0.01267  Uiso   1.00
Si6    Si    0.18171   0.42049   0.15119   0.01267  Uiso   1.00
Si7    Si    0.42025   0.30591   0.16045   0.01267  Uiso   1.00
Si8    Si    0.30671   0.32702   0.30517   0.01267  Uiso   1.00
Si9    Si    0.26866   0.30657   0.52043   0.01267  Uiso   1.00
Si10   Si    0.11528   0.30617   0.50889   0.01267  Uiso   1.00
Si11   Si    0.06738   0.32771   0.29491   0.01267  Uiso   1.00
Si12   Si    0.18645   0.30572   0.16856   0.01267  Uiso   1.00
Si13   Si    0.07488   0.36365   0.64732   0.01267  Uiso   1.00
Si14   Si    0.19103   0.37825   0.79455   0.01267  Uiso   1.00
Si15   Si    0.21832   0.36071   0.01423   0.01267  Uiso   1.00
Si16   Si    0.37523   0.36035   0.01163   0.01267  Uiso   1.00
Si17   Si    0.42534   0.37803   0.80050   0.01267  Uiso   1.00
Si18   Si    0.31408   0.36477   0.65238   0.01267  Uiso   1.00
Si19   Si    0.07617   0.47849   0.66092   0.01267  Uiso   1.00
Si20   Si    0.19314   0.45719   0.80242   0.01267  Uiso   1.00
Si21   Si    0.23015   0.47870   0.01720   0.01267  Uiso   1.00
Si22   Si    0.38315   0.47928   0.00868   0.01267  Uiso   1.00
Si23   Si    0.43229   0.45684   0.79897   0.01267  Uiso   1.00
Si24   Si    0.31530   0.47722   0.66667   0.01267  Uiso   1.00
Si25   Si    0.57525   0.17175   0.83316   0.01267  Uiso   1.00
Si26   Si    0.69037   0.15688   0.68522   0.01267  Uiso   1.00
Si27   Si    0.71910   0.17283   0.46493   0.01267  Uiso   1.00
Si28   Si    0.87726   0.17429   0.46642   0.01267  Uiso   1.00
Si29   Si    0.92934   0.15790   0.67842   0.01267  Uiso   1.00
Si30   Si    0.81465   0.17186   0.82042   0.01267  Uiso   1.00
Si31   Si    0.57842   0.05539   0.81580   0.01267  Uiso   1.00
Si32   Si    0.69240   0.07754   0.67433   0.01267  Uiso   1.00
Si33   Si    0.73035   0.05644   0.45924   0.01267  Uiso   1.00
Si34   Si    0.88359   0.05545   0.47026   0.01267  Uiso   1.00
Si35   Si    0.93273   0.07880   0.68056   0.01267  Uiso   1.00
Si36   Si    0.81434   0.05753   0.80934   0.01267  Uiso   1.00
Si37   Si    0.92388   0.11288   0.33318   0.01267  Uiso   1.00
Si38   Si    0.80926   0.12787   0.18476   0.01267  Uiso   1.00
Si39   Si    0.77982   0.11227   0.96422   0.01267  Uiso   1.00
Si40   Si    0.62167   0.11033   0.96625   0.01267  Uiso   1.00
Si41   Si    0.57030   0.12693   0.17849   0.01267  Uiso   1.00
Si42   Si    0.68493   0.11318   0.32133   0.01267  Uiso   1.00
Si43   Si    0.92088   0.22877   0.31427   0.01267  Uiso   1.00
Si44   Si    0.80738   0.20702   0.17251   0.01267  Uiso   1.00
Si45   Si    0.76891   0.22837   0.95758   0.01267  Uiso   1.00
Si46   Si    0.61579   0.22917   0.96951   0.01267  Uiso   1.00
Si47   Si    0.56643   0.20601   0.17965   0.01267  Uiso   1.00
Si48   Si    0.68506   0.22645   0.30733   0.01267  Uiso   1.00
Si49   Si    0.57293   0.36361   0.83748   0.01267  Uiso   1.00
Si50   Si    0.69351   0.37688   0.69786   0.01267  Uiso   1.00
Si51   Si    0.88104   0.35909   0.46873   0.01267  Uiso   1.00
Si52   Si    0.92650   0.37730   0.68378   0.01267  Uiso   1.00
Si53   Si    0.81850   0.36434   0.83975   0.01267  Uiso   1.00
Si54   Si    0.57853   0.47808   0.81784   0.01267  Uiso   1.00
Si55   Si    0.69387   0.45665   0.67705   0.01267  Uiso   1.00
Si56   Si    0.72969   0.47768   0.46069   0.01267  Uiso   1.00
Si57   Si    0.88327   0.47865   0.47072   0.01267  Uiso   1.00
Si58   Si    0.93169   0.45657   0.68368   0.01267  Uiso   1.00
Si59   Si    0.81414   0.47916   0.81189   0.01267  Uiso   1.00
Si60   Si    0.92342   0.42061   0.33641   0.01267  Uiso   1.00
Si61   Si    0.80488   0.40713   0.18764   0.01267  Uiso   1.00
Si62   Si    0.78104   0.42513   0.97022   0.01267  Uiso   1.00
Si63   Si    0.62324   0.42399   0.96935   0.01267  Uiso   1.00
Si64   Si    0.68176   0.42081   0.32723   0.01267  Uiso   1.00
Si65   Si    0.92494   0.30647   0.32072   0.01267  Uiso   1.00
Si66   Si    0.80312   0.32867   0.18646   0.01267  Uiso   1.00
Si67   Si    0.76865   0.30611   0.97068   0.01267  Uiso   1.00
Si68   Si    0.61575   0.30593   0.96987   0.01267  Uiso   1.00
Si69   Si    0.67985   0.30525   0.31278   0.01267  Uiso   1.00
Si70   Si    0.42334   0.11342   0.14726   0.01267  Uiso   1.00
Si71   Si    0.30687   0.12815   0.29555   0.01267  Uiso   1.00
Si72   Si    0.28005   0.11041   0.51430   0.01267  Uiso   1.00
Si73   Si    0.12215   0.11034   0.51312   0.01267  Uiso   1.00
Si74   Si    0.07136   0.12755   0.30015   0.01267  Uiso   1.00
Si75   Si    0.18399   0.11418   0.15479   0.01267  Uiso   1.00
Si76   Si    0.42162   0.22829   0.15991   0.01267  Uiso   1.00
Si77   Si    0.30591   0.20704   0.30418   0.01267  Uiso   1.00
Si78   Si    0.26871   0.22894   0.51798   0.01267  Uiso   1.00
Si79   Si    0.11532   0.22941   0.50851   0.01267  Uiso   1.00
Si80   Si    0.06616   0.20668   0.29764   0.01267  Uiso   1.00
Si81   Si    0.18468   0.22727   0.16765   0.01267  Uiso   1.00
Si82   Si    0.07605   0.17150   0.64609   0.01267  Uiso   1.00
Si83   Si    0.19297   0.15614   0.79134   0.01267  Uiso   1.00
Si84   Si    0.21940   0.17335   0.01263   0.01267  Uiso   1.00
Si85   Si    0.37762   0.17403   0.01107   0.01267  Uiso   1.00
Si86   Si    0.42828   0.15704   0.79701   0.01267  Uiso   1.00
Si87   Si    0.31638   0.17054   0.65115   0.01267  Uiso   1.00
Si88   Si    0.07733   0.05599   0.66304   0.01267  Uiso   1.00
Si89   Si    0.19248   0.07675   0.80569   0.01267  Uiso   1.00
Si90   Si    0.23026   0.05644   0.02106   0.01267  Uiso   1.00
Si91   Si    0.38336   0.05579   0.01048   0.01267  Uiso   1.00
Si92   Si    0.43300   0.07760   0.79773   0.01267  Uiso   1.00
Si93   Si    0.31396   0.05576   0.67062   0.01267  Uiso   1.00
Si94   Si    0.57097   0.40773   0.18148   0.01267  Uiso   1.00
Si95   Si    0.56571   0.32849   0.18027   0.01267  Uiso   1.00
Al96   Al    0.72214   0.36172   0.47314   0.01267  Uiso   1.00
O97    O     0.36579   0.42189   0.22513   0.01267  Uiso   1.00
O98    O     0.30373   0.42467   0.39588   0.01267  Uiso   1.00
O99    O     0.19991   0.42209   0.51661   0.01267  Uiso   1.00
O100   O     0.09657   0.42415   0.39749   0.01267  Uiso   1.00
O101   O     0.11027   0.42165   0.20354   0.01267  Uiso   1.00
O102   O     0.23695   0.41224   0.23379   0.01267  Uiso   1.00
O103   O     0.36608   0.30857   0.24760   0.01267  Uiso   1.00
O104   O     0.30719   0.31341   0.41757   0.01267  Uiso   1.00
O105   O     0.19222   0.31755   0.50821   0.01267  Uiso   1.00
O106   O     0.08567   0.30984   0.39869   0.01267  Uiso   1.00
O107   O     0.11218   0.31247   0.20674   0.01267  Uiso   1.00
O108   O     0.23688   0.31824   0.25382   0.01267  Uiso   1.00
O109   O     0.31852   0.36678   0.30385   0.01267  Uiso   1.00
O110   O     0.08031   0.36723   0.30495   0.01267  Uiso   1.00
O111   O     0.42473   0.45575   0.08274   0.01267  Uiso   1.00
O112   O     0.41392   0.39044   0.06555   0.01267  Uiso   1.00
O113   O     0.39561   0.32512   0.06176   0.01267  Uiso   1.00
O114   O     0.19464   0.45647   0.10116   0.01267  Uiso   1.00
O115   O     0.18137   0.39159   0.06747   0.01267  Uiso   1.00
O116   O     0.19935   0.32563   0.06612   0.01267  Uiso   1.00
O117   O     0.99300   0.41620   0.27909   0.01267  Uiso   1.00
O118   O     0.99134   0.32000   0.26678   0.01267  Uiso   1.00
O119   O     0.13062   0.36248   0.73275   0.01267  Uiso   1.00
O120   O     0.19577   0.35914   0.89975   0.01267  Uiso   1.00
O121   O     0.29705   0.36670   0.02343   0.01267  Uiso   1.00
O122   O     0.39535   0.35886   0.89618   0.01267  Uiso   1.00
O123   O     0.38636   0.36593   0.70253   0.01267  Uiso   1.00
O124   O     0.25951   0.37313   0.73566   0.01267  Uiso   1.00
O125   O     0.13459   0.47478   0.74131   0.01267  Uiso   1.00
O126   O     0.19449   0.47359   0.91139   0.01267  Uiso   1.00
O127   O     0.30672   0.46731   0.00846   0.01267  Uiso   1.00
O128   O     0.41220   0.47720   0.89764   0.01267  Uiso   1.00
O129   O     0.38967   0.47069   0.70623   0.01267  Uiso   1.00
O130   O     0.26355   0.46322   0.74843   0.01267  Uiso   1.00
O131   O     0.17905   0.41767   0.81146   0.01267  Uiso   1.00
O132   O     0.41668   0.41774   0.81626   0.01267  Uiso   1.00
O133   O     0.07516   0.32889   0.58668   0.01267  Uiso   1.00
O134   O     0.08872   0.39389   0.57089   0.01267  Uiso   1.00
O135   O     0.09609   0.45948   0.55943   0.01267  Uiso   1.00
O136   O     0.30273   0.32770   0.60832   0.01267  Uiso   1.00
O137   O     0.31046   0.39173   0.56348   0.01267  Uiso   1.00
O138   O     0.30474   0.45805   0.56250   0.01267  Uiso   1.00
O139   O     0.50195   0.36855   0.78554   0.01267  Uiso   1.00
O140   O     0.50992   0.46242   0.77683   0.01267  Uiso   1.00
O141   O     0.63237   0.17382   0.74993   0.01267  Uiso   1.00
O142   O     0.68937   0.17338   0.57590   0.01267  Uiso   1.00
O143   O     0.79830   0.16920   0.46735   0.01267  Uiso   1.00
O144   O     0.90492   0.17624   0.57811   0.01267  Uiso   1.00
O145   O     0.88732   0.17136   0.77183   0.01267  Uiso   1.00
O146   O     0.76132   0.16409   0.73471   0.01267  Uiso   1.00
O147   O     0.63395   0.05785   0.73033   0.01267  Uiso   1.00
O148   O     0.69225   0.06595   0.56035   0.01267  Uiso   1.00
O149   O     0.80713   0.06739   0.46938   0.01267  Uiso   1.00
O150   O     0.91306   0.05915   0.58062   0.01267  Uiso   1.00
O151   O     0.88876   0.06505   0.77190   0.01267  Uiso   1.00
O152   O     0.76325   0.06903   0.72343   0.01267  Uiso   1.00
O153   O     0.67832   0.11714   0.68066   0.01267  Uiso   1.00
O154   O     0.91933   0.11816   0.66512   0.01267  Uiso   1.00
O155   O     0.57360   0.20644   0.89425   0.01267  Uiso   1.00
O156   O     0.58744   0.14123   0.90922   0.01267  Uiso   1.00
O157   O     0.60247   0.07568   0.91293   0.01267  Uiso   1.00
O158   O     0.80200   0.20851   0.86640   0.01267  Uiso   1.00
O159   O     0.81053   0.14412   0.90708   0.01267  Uiso   1.00
O160   O     0.80033   0.07793   0.91036   0.01267  Uiso   1.00
O161   O     0.00565   0.16683   0.70033   0.01267  Uiso   1.00
O162   O     0.00975   0.07229   0.70532   0.01267  Uiso   1.00
O163   O     0.86775   0.11108   0.24847   0.01267  Uiso   1.00
O164   O     0.80878   0.11159   0.07555   0.01267  Uiso   1.00
O165   O     0.70044   0.11591   0.96552   0.01267  Uiso   1.00
O166   O     0.59478   0.10856   0.07852   0.01267  Uiso   1.00
O167   O     0.61244   0.11379   0.27200   0.01267  Uiso   1.00
O168   O     0.73867   0.12123   0.23625   0.01267  Uiso   1.00
O169   O     0.86515   0.22696   0.22886   0.01267  Uiso   1.00
O170   O     0.80685   0.21921   0.05900   0.01267  Uiso   1.00
O171   O     0.69215   0.21726   0.96803   0.01267  Uiso   1.00
O172   O     0.58699   0.22611   0.08061   0.01267  Uiso   1.00
O173   O     0.61018   0.21939   0.27195   0.01267  Uiso   1.00
O174   O     0.73600   0.21486   0.22201   0.01267  Uiso   1.00
O175   O     0.82198   0.16760   0.17865   0.01267  Uiso   1.00
O176   O     0.57984   0.16676   0.16390   0.01267  Uiso   1.00
O177   O     0.92520   0.07815   0.39369   0.01267  Uiso   1.00
O178   O     0.91040   0.14323   0.40930   0.01267  Uiso   1.00
O179   O     0.89600   0.20880   0.41161   0.01267  Uiso   1.00
O180   O     0.69745   0.07675   0.36837   0.01267  Uiso   1.00
O181   O     0.68806   0.14144   0.40666   0.01267  Uiso   1.00
O182   O     0.69938   0.20754   0.41064   0.01267  Uiso   1.00
O183   O     0.49390   0.11826   0.20071   0.01267  Uiso   1.00
O184   O     0.48964   0.21311   0.20453   0.01267  Uiso   1.00
O185   O     0.62894   0.36239   0.75400   0.01267  Uiso   1.00
O186   O     0.70058   0.35839   0.59460   0.01267  Uiso   1.00
O187   O     0.80414   0.35881   0.44590   0.01267  Uiso   1.00
O188   O     0.89715   0.35966   0.58611   0.01267  Uiso   1.00
O189   O     0.88753   0.36368   0.78011   0.01267  Uiso   1.00
O190   O     0.75763   0.36968   0.76566   0.01267  Uiso   1.00
O191   O     0.63342   0.47520   0.73199   0.01267  Uiso   1.00
O192   O     0.69258   0.46851   0.56305   0.01267  Uiso   1.00
O193   O     0.80670   0.46715   0.47075   0.01267  Uiso   1.00
O194   O     0.91288   0.47503   0.58112   0.01267  Uiso   1.00
O195   O     0.88864   0.47183   0.77407   0.01267  Uiso   1.00
O196   O     0.76353   0.46764   0.72589   0.01267  Uiso   1.00
O197   O     0.68483   0.41695   0.68620   0.01267  Uiso   1.00
O198   O     0.91712   0.41722   0.67367   0.01267  Uiso   1.00
O199   O     0.57146   0.32833   0.89657   0.01267  Uiso   1.00
O200   O     0.58577   0.39330   0.91603   0.01267  Uiso   1.00
O201   O     0.60285   0.45863   0.91634   0.01267  Uiso   1.00
O202   O     0.81190   0.32909   0.89778   0.01267  Uiso   1.00
O203   O     0.82003   0.39445   0.91937   0.01267  Uiso   1.00
O204   O     0.79917   0.45967   0.91442   0.01267  Uiso   1.00
O205   O     0.00372   0.36836   0.69867   0.01267  Uiso   1.00
O206   O     0.00906   0.46294   0.70714   0.01267  Uiso   1.00
O207   O     0.86465   0.42028   0.25589   0.01267  Uiso   1.00
O208   O     0.80503   0.42761   0.08413   0.01267  Uiso   1.00
O209   O     0.70216   0.41835   0.96345   0.01267  Uiso   1.00
O210   O     0.59901   0.42569   0.08281   0.01267  Uiso   1.00
O211   O     0.60918   0.42182   0.27660   0.01267  Uiso   1.00
O212   O     0.73478   0.41281   0.24012   0.01267  Uiso   1.00
O213   O     0.86342   0.31258   0.24678   0.01267  Uiso   1.00
O214   O     0.79489   0.30856   0.08368   0.01267  Uiso   1.00
O215   O     0.69203   0.31806   0.96620   0.01267  Uiso   1.00
O216   O     0.58853   0.30881   0.08190   0.01267  Uiso   1.00
O217   O     0.60657   0.31247   0.27281   0.01267  Uiso   1.00
O218   O     0.73497   0.32431   0.24996   0.01267  Uiso   1.00
O219   O     0.81493   0.36764   0.16481   0.01267  Uiso   1.00
O220   O     0.58143   0.36763   0.17036   0.01267  Uiso   1.00
O221   O     0.92423   0.45614   0.39320   0.01267  Uiso   1.00
O222   O     0.91631   0.39123   0.41754   0.01267  Uiso   1.00
O223   O     0.91513   0.32544   0.42488   0.01267  Uiso   1.00
O224   O     0.69619   0.45791   0.37025   0.01267  Uiso   1.00
O225   O     0.68332   0.39297   0.41101   0.01267  Uiso   1.00
O226   O     0.68423   0.32167   0.42748   0.01267  Uiso   1.00
O227   O     0.49366   0.41598   0.19736   0.01267  Uiso   1.00
O228   O     0.48831   0.32217   0.20098   0.01267  Uiso   1.00
O229   O     0.36640   0.11287   0.23070   0.01267  Uiso   1.00
O230   O     0.30397   0.10859   0.40022   0.01267  Uiso   1.00
O231   O     0.20101   0.11531   0.52072   0.01267  Uiso   1.00
O232   O     0.09902   0.10949   0.39898   0.01267  Uiso   1.00
O233   O     0.11170   0.11434   0.20478   0.01267  Uiso   1.00
O234   O     0.23768   0.12333   0.23872   0.01267  Uiso   1.00
O235   O     0.36480   0.22442   0.24267   0.01267  Uiso   1.00
O236   O     0.30546   0.22362   0.41293   0.01267  Uiso   1.00
O237   O     0.19211   0.21788   0.50714   0.01267  Uiso   1.00
O238   O     0.08492   0.22609   0.39860   0.01267  Uiso   1.00
O239   O     0.11015   0.22117   0.20710   0.01267  Uiso   1.00
O240   O     0.23571   0.21338   0.25047   0.01267  Uiso   1.00
O241   O     0.31936   0.16750   0.31358   0.01267  Uiso   1.00
O242   O     0.08057   0.16741   0.31234   0.01267  Uiso   1.00
O243   O     0.42371   0.07839   0.08844   0.01267  Uiso   1.00
O244   O     0.41242   0.14345   0.06874   0.01267  Uiso   1.00
O245   O     0.40105   0.20899   0.05941   0.01267  Uiso   1.00
O246   O     0.19746   0.07747   0.11018   0.01267  Uiso   1.00
O247   O     0.18631   0.14151   0.06666   0.01267  Uiso   1.00
O248   O     0.19575   0.20771   0.06423   0.01267  Uiso   1.00
O249   O     0.99486   0.11832   0.28158   0.01267  Uiso   1.00
O250   O     0.98896   0.21276   0.27258   0.01267  Uiso   1.00
O251   O     0.13335   0.17250   0.72895   0.01267  Uiso   1.00
O252   O     0.19605   0.17388   0.89850   0.01267  Uiso   1.00
O253   O     0.29873   0.17004   0.02067   0.01267  Uiso   1.00
O254   O     0.39981   0.17425   0.89658   0.01267  Uiso   1.00
O255   O     0.38834   0.17092   0.70217   0.01267  Uiso   1.00
O256   O     0.26208   0.16239   0.73521   0.01267  Uiso   1.00
O257   O     0.13334   0.05840   0.74772   0.01267  Uiso   1.00
O258   O     0.19168   0.06382   0.91874   0.01267  Uiso   1.00
O259   O     0.30681   0.06756   0.00835   0.01267  Uiso   1.00
O260   O     0.41426   0.05961   0.90102   0.01267  Uiso   1.00
O261   O     0.38850   0.06240   0.70906   0.01267  Uiso   1.00
O262   O     0.26299   0.06780   0.75594   0.01267  Uiso   1.00
O263   O     0.18067   0.11656   0.80271   0.01267  Uiso   1.00
O264   O     0.41944   0.11714   0.80699   0.01267  Uiso   1.00
O265   O     0.07522   0.20632   0.58568   0.01267  Uiso   1.00
O266   O     0.08667   0.14110   0.56900   0.01267  Uiso   1.00
O267   O     0.10104   0.07547   0.56401   0.01267  Uiso   1.00
O268   O     0.30348   0.20681   0.60290   0.01267  Uiso   1.00
O269   O     0.31495   0.14220   0.56602   0.01267  Uiso   1.00
O270   O     0.30099   0.07616   0.56902   0.01267  Uiso   1.00
O271   O     0.50476   0.16679   0.77999   0.01267  Uiso   1.00
O272   O     0.51001   0.07080   0.77345   0.01267  Uiso   1.00
O273   O     0.43158   0.26719   0.13283   0.01267  Uiso   1.00
O274   O     0.19701   0.26646   0.14762   0.01267  Uiso   1.00
O275   O     0.27469   0.26763   0.54995   0.01267  Uiso   1.00
O276   O     0.10912   0.26773   0.54371   0.01267  Uiso   1.00
O277   O     0.06566   0.01741   0.63467   0.01267  Uiso   1.00
O278   O     0.30382   0.01658   0.64804   0.01267  Uiso   1.00
O279   O     0.22512   0.01740   0.04917   0.01267  Uiso   1.00
O280   O     0.38906   0.01743   0.04587   0.01267  Uiso   1.00
O281   O     0.56816   0.01686   0.84658   0.01267  Uiso   1.00
O282   O     0.80559   0.01849   0.83364   0.01267  Uiso   1.00
O283   O     0.72380   0.01715   0.43772   0.01267  Uiso   1.00
O284   O     0.88980   0.01710   0.43608   0.01267  Uiso   1.00
O285   O     0.93175   0.26717   0.34425   0.01267  Uiso   1.00
O286   O     0.69346   0.26618   0.32651   0.01267  Uiso   1.00
O287   O     0.77436   0.26777   0.93490   0.01267  Uiso   1.00
O288   O     0.60982   0.26757   0.93409   0.01267  Uiso   1.00
Si289  Si    0.42369   0.92088   0.14299   0.01267  Uiso   1.00
Si290  Si    0.30621   0.90631   0.28953   0.01267  Uiso   1.00
Si291  Si    0.27935   0.92419   0.50977   0.01267  Uiso   1.00
Si292  Si    0.12054   0.92479   0.51093   0.01267  Uiso   1.00
Si293  Si    0.06960   0.90711   0.29694   0.01267  Uiso   1.00
Si294  Si    0.18171   0.92049   0.15119   0.01267  Uiso   1.00
Si295  Si    0.42025   0.80591   0.16045   0.01267  Uiso   1.00
Si296  Si    0.30671   0.82702   0.30517   0.01267  Uiso   1.00
Si297  Si    0.26866   0.80657   0.52043   0.01267  Uiso   1.00
Si298  Si    0.11528   0.80617   0.50889   0.01267  Uiso   1.00
Si299  Si    0.06738   0.82771   0.29491   0.01267  Uiso   1.00
Si300  Si    0.18645   0.80572   0.16856   0.01267  Uiso   1.00
Si301  Si    0.07488   0.86365   0.64732   0.01267  Uiso   1.00
Si302  Si    0.19103   0.87825   0.79455   0.01267  Uiso   1.00
Si303  Si    0.21832   0.86071   0.01423   0.01267  Uiso   1.00
Si304  Si    0.37523   0.86035   0.01163   0.01267  Uiso   1.00
Si305  Si    0.42534   0.87803   0.80050   0.01267  Uiso   1.00
Si306  Si    0.31408   0.86477   0.65238   0.01267  Uiso   1.00
Si307  Si    0.07617   0.97849   0.66092   0.01267  Uiso   1.00
Si308  Si    0.19314   0.95719   0.80242   0.01267  Uiso   1.00
Si309  Si    0.23015   0.97870   0.01720   0.01267  Uiso   1.00
Si310  Si    0.38315   0.97928   0.00868   0.01267  Uiso   1.00
Si311  Si    0.43229   0.95684   0.79897   0.01267  Uiso   1.00
Si312  Si    0.31530   0.97722   0.66667   0.01267  Uiso   1.00
Si313  Si    0.57525   0.67175   0.83316   0.01267  Uiso   1.00
Si314  Si    0.69037   0.65688   0.68522   0.01267  Uiso   1.00
Si315  Si    0.71910   0.67283   0.46493   0.01267  Uiso   1.00
Si316  Si    0.87726   0.67429   0.46642   0.01267  Uiso   1.00
Si317  Si    0.92934   0.65790   0.67842   0.01267  Uiso   1.00
Si318  Si    0.81465   0.67186   0.82042   0.01267  Uiso   1.00
Si319  Si    0.57842   0.55539   0.81580   0.01267  Uiso   1.00
Si320  Si    0.69240   0.57754   0.67433   0.01267  Uiso   1.00
Si321  Si    0.73035   0.55644   0.45924   0.01267  Uiso   1.00
Si322  Si    0.88359   0.55545   0.47026   0.01267  Uiso   1.00
Si323  Si    0.93273   0.57880   0.68056   0.01267  Uiso   1.00
Si324  Si    0.81434   0.55753   0.80934   0.01267  Uiso   1.00
Si325  Si    0.92388   0.61288   0.33318   0.01267  Uiso   1.00
Si326  Si    0.80926   0.62787   0.18476   0.01267  Uiso   1.00
Si327  Si    0.77982   0.61227   0.96422   0.01267  Uiso   1.00
Si328  Si    0.62167   0.61033   0.96625   0.01267  Uiso   1.00
Si329  Si    0.57030   0.62693   0.17849   0.01267  Uiso   1.00
Si330  Si    0.68493   0.61318   0.32133   0.01267  Uiso   1.00
Si331  Si    0.92088   0.72877   0.31427   0.01267  Uiso   1.00
Si332  Si    0.80738   0.70702   0.17251   0.01267  Uiso   1.00
Si333  Si    0.76891   0.72837   0.95758   0.01267  Uiso   1.00
Si334  Si    0.61579   0.72917   0.96951   0.01267  Uiso   1.00
Si335  Si    0.56643   0.70601   0.17965   0.01267  Uiso   1.00
Si336  Si    0.68506   0.72645   0.30733   0.01267  Uiso   1.00
Si337  Si    0.57293   0.86361   0.83748   0.01267  Uiso   1.00
Si338  Si    0.69351   0.87688   0.69786   0.01267  Uiso   1.00
Si339  Si    0.88104   0.85909   0.46873   0.01267  Uiso   1.00
Si340  Si    0.92650   0.87730   0.68378   0.01267  Uiso   1.00
Si341  Si    0.81850   0.86434   0.83975   0.01267  Uiso   1.00
Si342  Si    0.57853   0.97808   0.81784   0.01267  Uiso   1.00
Si343  Si    0.69387   0.95665   0.67705   0.01267  Uiso   1.00
Si344  Si    0.72969   0.97768   0.46069   0.01267  Uiso   1.00
Si345  Si    0.88327   0.97865   0.47072   0.01267  Uiso   1.00
Si346  Si    0.93169   0.95657   0.68368   0.01267  Uiso   1.00
Si347  Si    0.81414   0.97916   0.81189   0.01267  Uiso   1.00
Si348  Si    0.92342   0.92061   0.33641   0.01267  Uiso   1.00
Si349  Si    0.80488   0.90713   0.18764   0.01267  Uiso   1.00
Si350  Si    0.78104   0.92513   0.97022   0.01267  Uiso   1.00
Si351  Si    0.62324   0.92399   0.96935   0.01267  Uiso   1.00
Si352  Si    0.68176   0.92081   0.32723   0.01267  Uiso   1.00
Si353  Si    0.92494   0.80647   0.32072   0.01267  Uiso   1.00
Si354  Si    0.80312   0.82867   0.18646   0.01267  Uiso   1.00
Si355  Si    0.76865   0.80611   0.97068   0.01267  Uiso   1.00
Si356  Si    0.61575   0.80593   0.96987   0.01267  Uiso   1.00
Si357  Si    0.67985   0.80525   0.31278   0.01267  Uiso   1.00
Si358  Si    0.42334   0.61342   0.14726   0.01267  Uiso   1.00
Si359  Si    0.30687   0.62815   0.29555   0.01267  Uiso   1.00
Si360  Si    0.28005   0.61041   0.51430   0.01267  Uiso   1.00
Si361  Si    0.12215   0.61034   0.51312   0.01267  Uiso   1.00
Si362  Si    0.07136   0.62755   0.30015   0.01267  Uiso   1.00
Si363  Si    0.18399   0.61418   0.15479   0.01267  Uiso   1.00
Si364  Si    0.42162   0.72829   0.15991   0.01267  Uiso   1.00
Si365  Si    0.30591   0.70704   0.30418   0.01267  Uiso   1.00
Si366  Si    0.26871   0.72894   0.51798   0.01267  Uiso   1.00
Si367  Si    0.11532   0.72941   0.50851   0.01267  Uiso   1.00
Si368  Si    0.06616   0.70668   0.29764   0.01267  Uiso   1.00
Si369  Si    0.18468   0.72727   0.16765   0.01267  Uiso   1.00
Si370  Si    0.07605   0.67150   0.64609   0.01267  Uiso   1.00
Si371  Si    0.19297   0.65614   0.79134   0.01267  Uiso   1.00
Si372  Si    0.21940   0.67335   0.01263   0.01267  Uiso   1.00
Si373  Si    0.37762   0.67403   0.01107   0.01267  Uiso   1.00
Si374  Si    0.42828   0.65704   0.79701   0.01267  Uiso   1.00
Si375  Si    0.31638   0.67054   0.65115   0.01267  Uiso   1.00
Si376  Si    0.07733   0.55599   0.66304   0.01267  Uiso   1.00
Si377  Si    0.19248   0.57675   0.80569   0.01267  Uiso   1.00
Si378  Si    0.23026   0.55644   0.02106   0.01267  Uiso   1.00
Si379  Si    0.38336   0.55579   0.01048   0.01267  Uiso   1.00
Si380  Si    0.43300   0.57760   0.79773   0.01267  Uiso   1.00
Si381  Si    0.31396   0.55576   0.67062   0.01267  Uiso   1.00
Si382  Si    0.57097   0.90773   0.18148   0.01267  Uiso   1.00
Si383  Si    0.56571   0.82849   0.18027   0.01267  Uiso   1.00
Al384  Al    0.72214   0.86172   0.47314   0.01267  Uiso   1.00
O385   O     0.36579   0.92189   0.22513   0.01267  Uiso   1.00
O386   O     0.30373   0.92467   0.39588   0.01267  Uiso   1.00
O387   O     0.19991   0.92209   0.51661   0.01267  Uiso   1.00
O388   O     0.09657   0.92415   0.39749   0.01267  Uiso   1.00
O389   O     0.11027   0.92165   0.20354   0.01267  Uiso   1.00
O390   O     0.23695   0.91224   0.23379   0.01267  Uiso   1.00
O391   O     0.36608   0.80857   0.24760   0.01267  Uiso   1.00
O392   O     0.30719   0.81341   0.41757   0.01267  Uiso   1.00
O393   O     0.19222   0.81754   0.50821   0.01267  Uiso   1.00
O394   O     0.08567   0.80984   0.39869   0.01267  Uiso   1.00
O395   O     0.11218   0.81247   0.20674   0.01267  Uiso   1.00
O396   O     0.23688   0.81824   0.25382   0.01267  Uiso   1.00
O397   O     0.31852   0.86678   0.30385   0.01267  Uiso   1.00
O398   O     0.08031   0.86723   0.30495   0.01267  Uiso   1.00
O399   O     0.42473   0.95575   0.08274   0.01267  Uiso   1.00
O400   O     0.41392   0.89044   0.06555   0.01267  Uiso   1.00
O401   O     0.39561   0.82512   0.06176   0.01267  Uiso   1.00
O402   O     0.19464   0.95647   0.10116   0.01267  Uiso   1.00
O403   O     0.18137   0.89159   0.06747   0.01267  Uiso   1.00
O404   O     0.19935   0.82563   0.06612   0.01267  Uiso   1.00
O405   O     0.99300   0.91620   0.27909   0.01267  Uiso   1.00
O406   O     0.99134   0.82000   0.26678   0.01267  Uiso   1.00
O407   O     0.13062   0.86248   0.73275   0.01267  Uiso   1.00
O408   O     0.19577   0.85914   0.89975   0.01267  Uiso   1.00
O409   O     0.29705   0.86670   0.02343   0.01267  Uiso   1.00
O410   O     0.39535   0.85886   0.89618   0.01267  Uiso   1.00
O411   O     0.38636   0.86593   0.70253   0.01267  Uiso   1.00
O412   O     0.25951   0.87313   0.73566   0.01267  Uiso   1.00
O413   O     0.13459   0.97478   0.74131   0.01267  Uiso   1.00
O414   O     0.19449   0.97359   0.91139   0.01267  Uiso   1.00
O415   O     0.30672   0.96731   0.00846   0.01267  Uiso   1.00
O416   O     0.41220   0.97720   0.89764   0.01267  Uiso   1.00
O417   O     0.38967   0.97069   0.70623   0.01267  Uiso   1.00
O418   O     0.26355   0.96322   0.74843   0.01267  Uiso   1.00
O419   O     0.17905   0.91766   0.81146   0.01267  Uiso   1.00
O420   O     0.41668   0.91774   0.81626   0.01267  Uiso   1.00
O421   O     0.07516   0.82888   0.58668   0.01267  Uiso   1.00
O422   O     0.08872   0.89389   0.57089   0.01267  Uiso   1.00
O423   O     0.09609   0.95948   0.55943   0.01267  Uiso   1.00
O424   O     0.30273   0.82770   0.60831   0.01267  Uiso   1.00
O425   O     0.31046   0.89173   0.56348   0.01267  Uiso   1.00
O426   O     0.30474   0.95805   0.56250   0.01267  Uiso   1.00
O427   O     0.50195   0.86855   0.78554   0.01267  Uiso   1.00
O428   O     0.50992   0.96242   0.77683   0.01267  Uiso   1.00
O429   O     0.63237   0.67382   0.74993   0.01267  Uiso   1.00
O430   O     0.68937   0.67338   0.57590   0.01267  Uiso   1.00
O431   O     0.79830   0.66920   0.46735   0.01267  Uiso   1.00
O432   O     0.90492   0.67624   0.57811   0.01267  Uiso   1.00
O433   O     0.88732   0.67136   0.77183   0.01267  Uiso   1.00
O434   O     0.76132   0.66409   0.73471   0.01267  Uiso   1.00
O435   O     0.63395   0.55785   0.73033   0.01267  Uiso   1.00
O436   O     0.69225   0.56595   0.56035   0.01267  Uiso   1.00
O437   O     0.80713   0.56739   0.46938   0.01267  Uiso   1.00
O438   O     0.91306   0.55915   0.58062   0.01267  Uiso   1.00
O439   O     0.88876   0.56505   0.77190   0.01267  Uiso   1.00
O440   O     0.76325   0.56903   0.72343   0.01267  Uiso   1.00
O441   O     0.67832   0.61714   0.68066   0.01267  Uiso   1.00
O442   O     0.91933   0.61816   0.66512   0.01267  Uiso   1.00
O443   O     0.57360   0.70644   0.89425   0.01267  Uiso   1.00
O444   O     0.58744   0.64123   0.90922   0.01267  Uiso   1.00
O445   O     0.60247   0.57568   0.91293   0.01267  Uiso   1.00
O446   O     0.80200   0.70851   0.86640   0.01267  Uiso   1.00
O447   O     0.81053   0.64412   0.90708   0.01267  Uiso   1.00
O448   O     0.80033   0.57793   0.91036   0.01267  Uiso   1.00
O449   O     0.00565   0.66683   0.70033   0.01267  Uiso   1.00
O450   O     0.00975   0.57229   0.70532   0.01267  Uiso   1.00
O451   O     0.86775   0.61108   0.24847   0.01267  Uiso   1.00
O452   O     0.80878   0.61159   0.07555   0.01267  Uiso   1.00
O453   O     0.70044   0.61591   0.96552   0.01267  Uiso   1.00
O454   O     0.59478   0.60856   0.07852   0.01267  Uiso   1.00
O455   O     0.61244   0.61379   0.27200   0.01267  Uiso   1.00
O456   O     0.73867   0.62123   0.23624   0.01267  Uiso   1.00
O457   O     0.86515   0.72696   0.22886   0.01267  Uiso   1.00
O458   O     0.80685   0.71921   0.05900   0.01267  Uiso   1.00
O459   O     0.69215   0.71726   0.96803   0.01267  Uiso   1.00
O460   O     0.58699   0.72611   0.08061   0.01267  Uiso   1.00
O461   O     0.61018   0.71939   0.27195   0.01267  Uiso   1.00
O462   O     0.73600   0.71486   0.22201   0.01267  Uiso   1.00
O463   O     0.82198   0.66760   0.17865   0.01267  Uiso   1.00
O464   O     0.57984   0.66676   0.16390   0.01267  Uiso   1.00
O465   O     0.92520   0.57815   0.39369   0.01267  Uiso   1.00
O466   O     0.91040   0.64323   0.40930   0.01267  Uiso   1.00
O467   O     0.89600   0.70880   0.41161   0.01267  Uiso   1.00
O468   O     0.69745   0.57675   0.36837   0.01267  Uiso   1.00
O469   O     0.68806   0.64144   0.40666   0.01267  Uiso   1.00
O470   O     0.69938   0.70754   0.41064   0.01267  Uiso   1.00
O471   O     0.49390   0.61826   0.20071   0.01267  Uiso   1.00
O472   O     0.48964   0.71311   0.20453   0.01267  Uiso   1.00
O473   O     0.62894   0.86239   0.75400   0.01267  Uiso   1.00
O474   O     0.70058   0.85839   0.59460   0.01267  Uiso   1.00
O475   O     0.80414   0.85881   0.44590   0.01267  Uiso   1.00
O476   O     0.89715   0.85966   0.58611   0.01267  Uiso   1.00
O477   O     0.88753   0.86368   0.78011   0.01267  Uiso   1.00
O478   O     0.75763   0.86968   0.76566   0.01267  Uiso   1.00
O479   O     0.63342   0.97520   0.73199   0.01267  Uiso   1.00
O480   O     0.69258   0.96851   0.56305   0.01267  Uiso   1.00
O481   O     0.80670   0.96715   0.47075   0.01267  Uiso   1.00
O482   O     0.91288   0.97503   0.58112   0.01267  Uiso   1.00
O483   O     0.88864   0.97183   0.77407   0.01267  Uiso   1.00
O484   O     0.76353   0.96764   0.72589   0.01267  Uiso   1.00
O485   O     0.68483   0.91695   0.68620   0.01267  Uiso   1.00
O486   O     0.91712   0.91722   0.67367   0.01267  Uiso   1.00
O487   O     0.57146   0.82833   0.89657   0.01267  Uiso   1.00
O488   O     0.58577   0.89330   0.91603   0.01267  Uiso   1.00
O489   O     0.60285   0.95863   0.91634   0.01267  Uiso   1.00
O490   O     0.81190   0.82909   0.89778   0.01267  Uiso   1.00
O491   O     0.82003   0.89445   0.91937   0.01267  Uiso   1.00
O492   O     0.79917   0.95967   0.91442   0.01267  Uiso   1.00
O493   O     0.00372   0.86836   0.69867   0.01267  Uiso   1.00
O494   O     0.00906   0.96294   0.70714   0.01267  Uiso   1.00
O495   O     0.86465   0.92028   0.25589   0.01267  Uiso   1.00
O496   O     0.80503   0.92761   0.08413   0.01267  Uiso   1.00
O497   O     0.70216   0.91835   0.96345   0.01267  Uiso   1.00
O498   O     0.59901   0.92569   0.08281   0.01267  Uiso   1.00
O499   O     0.60918   0.92182   0.27660   0.01267  Uiso   1.00
O500   O     0.73478   0.91281   0.24012   0.01267  Uiso   1.00
O501   O     0.86342   0.81258   0.24678   0.01267  Uiso   1.00
O502   O     0.79489   0.80856   0.08368   0.01267  Uiso   1.00
O503   O     0.69203   0.81806   0.96620   0.01267  Uiso   1.00
O504   O     0.58853   0.80881   0.08190   0.01267  Uiso   1.00
O505   O     0.60657   0.81247   0.27281   0.01267  Uiso   1.00
O506   O     0.73497   0.82431   0.24996   0.01267  Uiso   1.00
O507   O     0.81493   0.86764   0.16481   0.01267  Uiso   1.00
O508   O     0.58143   0.86763   0.17036   0.01267  Uiso   1.00
O509   O     0.92423   0.95614   0.39320   0.01267  Uiso   1.00
O510   O     0.91631   0.89123   0.41754   0.01267  Uiso   1.00
O511   O     0.91513   0.82544   0.42488   0.01267  Uiso   1.00
O512   O     0.69619   0.95791   0.37025   0.01267  Uiso   1.00
O513   O     0.68332   0.89297   0.41101   0.01267  Uiso   1.00
O514   O     0.68423   0.82167   0.42748   0.01267  Uiso   1.00
O515   O     0.49366   0.91598   0.19736   0.01267  Uiso   1.00
O516   O     0.48831   0.82217   0.20098   0.01267  Uiso   1.00
O517   O     0.36640   0.61287   0.23070   0.01267  Uiso   1.00
O518   O     0.30397   0.60859   0.40022   0.01267  Uiso   1.00
O519   O     0.20101   0.61531   0.52072   0.01267  Uiso   1.00
O520   O     0.09902   0.60949   0.39898   0.01267  Uiso   1.00
O521   O     0.11170   0.61434   0.20478   0.01267  Uiso   1.00
O522   O     0.23768   0.62333   0.23872   0.01267  Uiso   1.00
O523   O     0.36480   0.72442   0.24267   0.01267  Uiso   1.00
O524   O     0.30546   0.72362   0.41293   0.01267  Uiso   1.00
O525   O     0.19211   0.71788   0.50714   0.01267  Uiso   1.00
O526   O     0.08492   0.72609   0.39860   0.01267  Uiso   1.00
O527   O     0.11015   0.72117   0.20710   0.01267  Uiso   1.00
O528   O     0.23571   0.71338   0.25047   0.01267  Uiso   1.00
O529   O     0.31936   0.66750   0.31358   0.01267  Uiso   1.00
O530   O     0.08057   0.66741   0.31234   0.01267  Uiso   1.00
O531   O     0.42371   0.57839   0.08844   0.01267  Uiso   1.00
O532   O     0.41242   0.64345   0.06873   0.01267  Uiso   1.00
O533   O     0.40105   0.70899   0.05941   0.01267  Uiso   1.00
O534   O     0.19746   0.57747   0.11018   0.01267  Uiso   1.00
O535   O     0.18631   0.64151   0.06666   0.01267  Uiso   1.00
O536   O     0.19575   0.70771   0.06423   0.01267  Uiso   1.00
O537   O     0.99486   0.61832   0.28158   0.01267  Uiso   1.00
O538   O     0.98896   0.71276   0.27258   0.01267  Uiso   1.00
O539   O     0.13335   0.67250   0.72895   0.01267  Uiso   1.00
O540   O     0.19605   0.67388   0.89850   0.01267  Uiso   1.00
O541   O     0.29873   0.67004   0.02067   0.01267  Uiso   1.00
O542   O     0.39981   0.67425   0.89658   0.01267  Uiso   1.00
O543   O     0.38834   0.67092   0.70217   0.01267  Uiso   1.00
O544   O     0.26208   0.66239   0.73521   0.01267  Uiso   1.00
O545   O     0.13334   0.55840   0.74772   0.01267  Uiso   1.00
O546   O     0.19168   0.56382   0.91874   0.01267  Uiso   1.00
O547   O     0.30681   0.56756   0.00835   0.01267  Uiso   1.00
O548   O     0.41426   0.55961   0.90102   0.01267  Uiso   1.00
O549   O     0.38850   0.56240   0.70906   0.01267  Uiso   1.00
O550   O     0.26299   0.56780   0.75594   0.01267  Uiso   1.00
O551   O     0.18067   0.61656   0.80271   0.01267  Uiso   1.00
O552   O     0.41944   0.61714   0.80699   0.01267  Uiso   1.00
O553   O     0.07522   0.70632   0.58568   0.01267  Uiso   1.00
O554   O     0.08667   0.64110   0.56900   0.01267  Uiso   1.00
O555   O     0.10104   0.57547   0.56401   0.01267  Uiso   1.00
O556   O     0.30348   0.70681   0.60290   0.01267  Uiso   1.00
O557   O     0.31495   0.64220   0.56602   0.01267  Uiso   1.00
O558   O     0.30099   0.57616   0.56902   0.01267  Uiso   1.00
O559   O     0.50476   0.66679   0.77999   0.01267  Uiso   1.00
O560   O     0.51001   0.57080   0.77345   0.01267  Uiso   1.00
O561   O     0.43158   0.76719   0.13283   0.01267  Uiso   1.00
O562   O     0.19701   0.76646   0.14762   0.01267  Uiso   1.00
O563   O     0.27469   0.76763   0.54995   0.01267  Uiso   1.00
O564   O     0.10912   0.76773   0.54371   0.01267  Uiso   1.00
O565   O     0.06566   0.51741   0.63467   0.01267  Uiso   1.00
O566   O     0.30382   0.51658   0.64804   0.01267  Uiso   1.00
O567   O     0.22512   0.51740   0.04917   0.01267  Uiso   1.00
O568   O     0.38906   0.51743   0.04587   0.01267  Uiso   1.00
O569   O     0.56816   0.51686   0.84658   0.01267  Uiso   1.00
O570   O     0.80559   0.51849   0.83364   0.01267  Uiso   1.00
O571   O     0.72380   0.51715   0.43772   0.01267  Uiso   1.00
O572   O     0.88980   0.51710   0.43608   0.01267  Uiso   1.00
O573   O     0.93175   0.76717   0.34425   0.01267  Uiso   1.00
O574   O     0.69346   0.76618   0.32651   0.01267  Uiso   1.00
O575   O     0.77436   0.76777   0.93490   0.01267  Uiso   1.00
O576   O     0.60982   0.76757   0.93409   0.01267  Uiso   1.00
H577   H     0.65686   0.80983   0.47749   0.01267  Uiso   1.00
H578   H     0.48331   0.78779   0.74730   0.01267  Uiso   1.00
H579   H     0.61041   0.77722   0.72481   0.01267  Uiso   1.00
H580   H     0.42035   0.78449   0.57712   0.01267  Uiso   1.00
H581   H     0.50206   0.77134   0.42969   0.01267  Uiso   1.00
C582   C     0.47312   0.78106   0.58489   0.01267  Uiso   1.00
C583   C     0.51409   0.77435   0.50719   0.01267  Uiso   1.00
C584   C     0.50695   0.78282   0.67684   0.01267  Uiso   1.00
C585   C     0.57310   0.77749   0.66773   0.01267  Uiso   1.00
S586   S     0.59380   0.76939   0.54714   0.01267  Uiso   1.00
loop_
_geom_bond_atom_site_label_1
_geom_bond_atom_site_label_2
_geom_bond_distance
_geom_bond_site_symmetry_2
_ccdc_geom_bond_type
Si1    O97     1.623   .     S
Si1    O111    1.626   .     S
Si1    O112    1.629   .     S
Si1    O227    1.619   .     S
Si2    O97     1.622   .     S
Si2    O98     1.624   .     S
Si2    O102    1.620   .     S
Si2    O109    1.626   .     S
Si3    O98     1.623   .     S
Si3    O99     1.624   .     S
Si3    O137    1.627   .     S
Si3    O138    1.627   .     S
Si4    O99     1.623   .     S
Si4    O100    1.616   .     S
Si4    O134    1.623   .     S
Si4    O135    1.625   .     S
Si5    O100    1.625   .     S
Si5    O101    1.623   .     S
Si5    O110    1.627   .     S
Si5    O117    1.622   1_455 S
Si6    O101    1.620   .     S
Si6    O102    1.624   .     S
Si6    O114    1.623   .     S
Si6    O115    1.629   .     S
Si7    O103    1.621   .     S
Si7    O113    1.627   .     S
Si7    O228    1.631   .     S
Si7    O273    1.623   .     S
Si8    O103    1.621   .     S
Si8    O104    1.621   .     S
Si8    O108    1.625   .     S
Si8    O109    1.621   .     S
Si9    O104    1.625   .     S
Si9    O105    1.628   .     S
Si9    O136    1.623   .     S
Si9    O275    1.625   .     S
Si10   O105    1.634   .     S
Si10   O106    1.620   .     S
Si10   O133    1.620   .     S
Si10   O276    1.625   .     S
Si11   O106    1.625   .     S
Si11   O107    1.626   .     S
Si11   O110    1.621   .     S
Si11   O118    1.627   1_455 S
Si12   O107    1.623   .     S
Si12   O108    1.629   .     S
Si12   O116    1.626   .     S
Si12   O274    1.624   .     S
Si13   O119    1.625   .     S
Si13   O133    1.627   .     S
Si13   O134    1.625   .     S
Si13   O205    1.620   .     S
Si14   O119    1.621   .     S
Si14   O120    1.625   .     S
Si14   O124    1.621   .     S
Si14   O131    1.625   .     S
Si15   O115    1.625   .     S
Si15   O116    1.626   .     S
Si15   O120    1.622   1_554 S
Si15   O121    1.628   .     S
Si16   O112    1.623   .     S
Si16   O113    1.629   .     S
Si16   O121    1.622   .     S
Si16   O122    1.621   1_554 S
Si17   O122    1.629   .     S
Si17   O123    1.625   .     S
Si17   O132    1.626   .     S
Si17   O139    1.620   .     S
Si18   O123    1.624   .     S
Si18   O124    1.621   .     S
Si18   O136    1.627   .     S
Si18   O137    1.625   .     S
Si19   O125    1.623   .     S
Si19   O135    1.628   .     S
Si19   O206    1.629   .     S
Si19   O565    1.623   .     S
Si20   O125    1.618   .     S
Si20   O126    1.621   .     S
Si20   O130    1.629   .     S
Si20   O131    1.624   .     S
Si21   O114    1.620   .     S
Si21   O126    1.624   1_554 S
Si21   O127    1.631   .     S
Si21   O567    1.624   .     S
Si22   O111    1.622   .     S
Si22   O127    1.631   .     S
Si22   O128    1.621   1_554 S
Si22   O568    1.624   .     S
Si23   O128    1.624   .     S
Si23   O129    1.629   .     S
Si23   O132    1.625   .     S
Si23   O140    1.626   .     S
Si24   O129    1.630   .     S
Si24   O130    1.631   .     S
Si24   O138    1.627   .     S
Si24   O566    1.624   .     S
Si25   O141    1.624   .     S
Si25   O155    1.628   .     S
Si25   O156    1.625   .     S
Si25   O271    1.621   .     S
Si26   O141    1.623   .     S
Si26   O142    1.626   .     S
Si26   O146    1.621   .     S
Si26   O153    1.623   .     S
Si27   O142    1.623   .     S
Si27   O143    1.621   .     S
Si27   O181    1.622   .     S
Si27   O182    1.632   .     S
Si28   O143    1.622   .     S
Si28   O144    1.620   .     S
Si28   O178    1.621   .     S
Si28   O179    1.623   .     S
Si29   O144    1.627   .     S
Si29   O145    1.623   .     S
Si29   O154    1.626   .     S
Si29   O161    1.624   1_655 S
Si30   O145    1.621   .     S
Si30   O146    1.624   .     S
Si30   O158    1.625   .     S
Si30   O159    1.625   .     S
Si31   O147    1.623   .     S
Si31   O157    1.628   .     S
Si31   O272    1.632   .     S
Si31   O281    1.622   .     S
Si32   O147    1.620   .     S
Si32   O148    1.617   .     S
Si32   O152    1.628   .     S
Si32   O153    1.625   .     S
Si33   O148    1.623   .     S
Si33   O149    1.632   .     S
Si33   O180    1.625   .     S
Si33   O283    1.617   .     S
Si34   O149    1.631   .     S
Si34   O150    1.621   .     S
Si34   O177    1.623   .     S
Si34   O284    1.620   .     S
Si35   O150    1.622   .     S
Si35   O151    1.626   .     S
Si35   O154    1.624   .     S
Si35   O162    1.627   1_655 S
Si36   O151    1.628   .     S
Si36   O152    1.631   .     S
Si36   O160    1.625   .     S
Si36   O282    1.618   .     S
Si37   O163    1.625   .     S
Si37   O177    1.623   .     S
Si37   O178    1.626   .     S
Si37   O249    1.621   .     S
Si38   O163    1.621   .     S
Si38   O164    1.622   .     S
Si38   O168    1.621   .     S
Si38   O175    1.625   .     S
Si39   O159    1.625   .     S
Si39   O160    1.621   .     S
Si39   O164    1.623   1_556 S
Si39   O165    1.625   .     S
Si40   O156    1.625   .     S
Si40   O157    1.623   .     S
Si40   O165    1.621   .     S
Si40   O166    1.620   1_556 S
Si41   O166    1.625   .     S
Si41   O167    1.622   .     S
Si41   O176    1.630   .     S
Si41   O183    1.624   .     S
Si42   O167    1.623   .     S
Si42   O168    1.623   .     S
Si42   O180    1.622   .     S
Si42   O181    1.627   .     S
Si43   O169    1.626   .     S
Si43   O179    1.627   .     S
Si43   O250    1.631   .     S
Si43   O285    1.617   .     S
Si44   O169    1.619   .     S
Si44   O170    1.617   .     S
Si44   O174    1.633   .     S
Si44   O175    1.619   .     S
Si45   O158    1.621   .     S
Si45   O170    1.622   1_556 S
Si45   O171    1.633   .     S
Si45   O287    1.622   .     S
Si46   O155    1.621   .     S
Si46   O171    1.629   .     S
Si46   O172    1.622   1_556 S
Si46   O288    1.626   .     S
Si47   O172    1.624   .     S
Si47   O173    1.631   .     S
Si47   O176    1.621   .     S
Si47   O184    1.626   .     S
Si48   O173    1.626   .     S
Si48   O174    1.624   .     S
Si48   O182    1.622   .     S
Si48   O286    1.633   .     S
Si49   O139    1.622   .     S
Si49   O185    1.608   .     S
Si49   O199    1.633   .     S
Si49   O200    1.625   .     S
Si50   O185    1.628   .     S
Si50   O186    1.595   .     S
Si50   O190    1.625   .     S
Si50   O197    1.633   .     S
Si51   O187    1.598   .     S
Si51   O188    1.627   .     S
Si51   O222    1.636   .     S
Si51   O223    1.637   .     S
Si52   O188    1.620   .     S
Si52   O189    1.625   .     S
Si52   O198    1.627   .     S
Si52   O205    1.628   1_655 S
Si53   O189    1.623   .     S
Si53   O190    1.612   .     S
Si53   O202    1.630   .     S
Si53   O203    1.627   .     S
Si54   O140    1.633   .     S
Si54   O191    1.619   .     S
Si54   O201    1.627   .     S
Si54   O569    1.626   .     S
Si55   O191    1.623   .     S
Si55   O192    1.620   .     S
Si55   O196    1.629   .     S
Si55   O197    1.616   .     S
Si56   O192    1.624   .     S
Si56   O193    1.632   .     S
Si56   O224    1.616   .     S
Si56   O571    1.626   .     S
Si57   O193    1.628   .     S
Si57   O194    1.623   .     S
Si57   O221    1.622   .     S
Si57   O572    1.625   .     S
Si58   O194    1.624   .     S
Si58   O195    1.629   .     S
Si58   O198    1.620   .     S
Si58   O206    1.630   1_655 S
Si59   O195    1.630   .     S
Si59   O196    1.627   .     S
Si59   O204    1.626   .     S
Si59   O570    1.623   .     S
Si60   O117    1.627   .     S
Si60   O207    1.622   .     S
Si60   O221    1.628   .     S
Si60   O222    1.623   .     S
Si61   O207    1.621   .     S
Si61   O208    1.629   .     S
Si61   O212    1.612   .     S
Si61   O219    1.636   .     S
Si62   O203    1.625   .     S
Si62   O204    1.627   .     S
Si62   O208    1.625   1_556 S
Si62   O209    1.633   .     S
Si63   O200    1.625   .     S
Si63   O201    1.625   .     S
Si63   O209    1.627   .     S
Si63   O210    1.618   1_556 S
Si64   O211    1.632   .     S
Si64   O212    1.634   .     S
Si64   O224    1.634   .     S
Si64   O225    1.598   .     S
Si65   O118    1.632   .     S
Si65   O213    1.626   .     S
Si65   O223    1.620   .     S
Si65   O285    1.623   .     S
Si66   O213    1.614   .     S
Si66   O214    1.623   .     S
Si66   O218    1.643   .     S
Si66   O219    1.616   .     S
Si67   O202    1.616   .     S
Si67   O214    1.628   1_556 S
Si67   O215    1.636   .     S
Si67   O287    1.625   .     S
Si68   O199    1.619   .     S
Si68   O215    1.630   .     S
Si68   O216    1.623   1_556 S
Si68   O288    1.627   .     S
Si69   O217    1.616   .     S
Si69   O218    1.605   .     S
Si69   O226    1.695   .     S
Si69   O286    1.611   .     S
Si70   O183    1.623   .     S
Si70   O229    1.621   .     S
Si70   O243    1.624   .     S
Si70   O244    1.628   .     S
Si71   O229    1.620   .     S
Si71   O230    1.625   .     S
Si71   O234    1.620   .     S
Si71   O241    1.626   .     S
Si72   O230    1.625   .     S
Si72   O231    1.626   .     S
Si72   O269    1.626   .     S
Si72   O270    1.625   .     S
Si73   O231    1.623   .     S
Si73   O232    1.620   .     S
Si73   O266    1.624   .     S
Si73   O267    1.624   .     S
Si74   O232    1.627   .     S
Si74   O233    1.623   .     S
Si74   O242    1.627   .     S
Si74   O249    1.623   1_455 S
Si75   O233    1.622   .     S
Si75   O234    1.623   .     S
Si75   O246    1.623   .     S
Si75   O247    1.627   .     S
Si76   O184    1.633   .     S
Si76   O235    1.620   .     S
Si76   O245    1.626   .     S
Si76   O273    1.624   .     S
Si77   O235    1.620   .     S
Si77   O236    1.621   .     S
Si77   O240    1.627   .     S
Si77   O241    1.623   .     S
Si78   O236    1.625   .     S
Si78   O237    1.631   .     S
Si78   O268    1.621   .     S
Si78   O275    1.625   .     S
Si79   O237    1.633   .     S
Si79   O238    1.622   .     S
Si79   O265    1.621   .     S
Si79   O276    1.623   .     S
Si80   O238    1.625   .     S
Si80   O239    1.628   .     S
Si80   O242    1.623   .     S
Si80   O250    1.629   1_455 S
Si81   O239    1.629   .     S
Si81   O240    1.631   .     S
Si81   O248    1.627   .     S
Si81   O274    1.623   .     S
Si82   O161    1.623   .     S
Si82   O251    1.623   .     S
Si82   O265    1.626   .     S
Si82   O266    1.627   .     S
Si83   O251    1.622   .     S
Si83   O252    1.623   .     S
Si83   O256    1.620   .     S
Si83   O263    1.623   .     S
Si84   O247    1.625   .     S
Si84   O248    1.626   .     S
Si84   O252    1.621   1_554 S
Si84   O253    1.626   .     S
Si85   O244    1.624   .     S
Si85   O245    1.627   .     S
Si85   O253    1.621   .     S
Si85   O254    1.618   1_554 S
Si86   O254    1.627   .     S
Si86   O255    1.623   .     S
Si86   O264    1.625   .     S
Si86   O271    1.624   .     S
Si87   O255    1.623   .     S
Si87   O256    1.622   .     S
Si87   O268    1.624   .     S
Si87   O269    1.626   .     S
Si88   O162    1.630   .     S
Si88   O257    1.624   .     S
Si88   O267    1.629   .     S
Si88   O277    1.621   .     S
Si89   O257    1.619   .     S
Si89   O258    1.620   .     S
Si89   O262    1.628   .     S
Si89   O263    1.624   .     S
Si90   O246    1.622   .     S
Si90   O258    1.624   1_554 S
Si90   O259    1.632   .     S
Si90   O279    1.623   .     S
Si91   O243    1.622   .     S
Si91   O259    1.631   .     S
Si91   O260    1.620   1_554 S
Si91   O280    1.624   .     S
Si92   O260    1.623   .     S
Si92   O261    1.628   .     S
Si92   O264    1.623   .     S
Si92   O272    1.627   .     S
Si93   O261    1.629   .     S
Si93   O262    1.630   .     S
Si93   O270    1.627   .     S
Si93   O278    1.623   .     S
Si94   O210    1.625   .     S
Si94   O211    1.612   .     S
Si94   O220    1.638   .     S
Si94   O227    1.625   .     S
Si95   O216    1.622   .     S
Si95   O217    1.640   .     S
Si95   O220    1.616   .     S
Si95   O228    1.622   .     S
Al96   O186    1.711   .     S
Al96   O187    1.715   .     S
Al96   O225    1.710   .     S
Al96   O226    1.895   .     S
O117   Si5     1.622   1_655 S
O118   Si11    1.627   1_655 S
O120   Si15    1.622   1_556 S
O122   Si16    1.621   1_556 S
O126   Si21    1.624   1_556 S
O128   Si22    1.621   1_556 S
O161   Si29    1.624   1_455 S
O162   Si35    1.627   1_455 S
O164   Si39    1.623   1_554 S
O166   Si40    1.620   1_554 S
O170   Si45    1.622   1_554 S
O172   Si46    1.622   1_554 S
O205   Si52    1.628   1_455 S
O206   Si58    1.630   1_455 S
O208   Si62    1.625   1_554 S
O210   Si63    1.618   1_554 S
O214   Si67    1.628   1_554 S
O216   Si68    1.623   1_554 S
O249   Si74    1.623   1_655 S
O250   Si80    1.629   1_655 S
O252   Si84    1.621   1_556 S
O254   Si85    1.618   1_556 S
O258   Si90    1.624   1_556 S
O260   Si91    1.620   1_556 S
O277   Si307   1.623   1_545 S
O278   Si312   1.624   1_545 S
O279   Si309   1.624   1_545 S
O280   Si310   1.624   1_545 S
O281   Si342   1.626   1_545 S
O282   Si347   1.623   1_545 S
O283   Si344   1.626   1_545 S
O284   Si345   1.625   1_545 S
Si289  O385    1.623   .     S
Si289  O399    1.626   .     S
Si289  O400    1.629   .     S
Si289  O515    1.619   .     S
Si290  O385    1.622   .     S
Si290  O386    1.624   .     S
Si290  O390    1.620   .     S
Si290  O397    1.626   .     S
Si291  O386    1.623   .     S
Si291  O387    1.624   .     S
Si291  O425    1.627   .     S
Si291  O426    1.627   .     S
Si292  O387    1.623   .     S
Si292  O388    1.616   .     S
Si292  O422    1.623   .     S
Si292  O423    1.625   .     S
Si293  O388    1.625   .     S
Si293  O389    1.623   .     S
Si293  O398    1.627   .     S
Si293  O405    1.622   1_455 S
Si294  O389    1.620   .     S
Si294  O390    1.624   .     S
Si294  O402    1.623   .     S
Si294  O403    1.629   .     S
Si295  O391    1.621   .     S
Si295  O401    1.627   .     S
Si295  O516    1.631   .     S
Si295  O561    1.623   .     S
Si296  O391    1.621   .     S
Si296  O392    1.621   .     S
Si296  O396    1.625   .     S
Si296  O397    1.621   .     S
Si297  O392    1.625   .     S
Si297  O393    1.628   .     S
Si297  O424    1.623   .     S
Si297  O563    1.625   .     S
Si298  O393    1.634   .     S
Si298  O394    1.620   .     S
Si298  O421    1.620   .     S
Si298  O564    1.625   .     S
Si299  O394    1.625   .     S
Si299  O395    1.626   .     S
Si299  O398    1.621   .     S
Si299  O406    1.627   1_455 S
Si300  O395    1.623   .     S
Si300  O396    1.629   .     S
Si300  O404    1.626   .     S
Si300  O562    1.624   .     S
Si301  O407    1.625   .     S
Si301  O421    1.627   .     S
Si301  O422    1.625   .     S
Si301  O493    1.620   .     S
Si302  O407    1.621   .     S
Si302  O408    1.625   .     S
Si302  O412    1.621   .     S
Si302  O419    1.625   .     S
Si303  O403    1.625   .     S
Si303  O404    1.626   .     S
Si303  O408    1.622   1_554 S
Si303  O409    1.628   .     S
Si304  O400    1.623   .     S
Si304  O401    1.629   .     S
Si304  O409    1.622   .     S
Si304  O410    1.621   1_554 S
Si305  O410    1.629   .     S
Si305  O411    1.625   .     S
Si305  O420    1.626   .     S
Si305  O427    1.620   .     S
Si306  O411    1.624   .     S
Si306  O412    1.621   .     S
Si306  O424    1.627   .     S
Si306  O425    1.625   .     S
Si307  O413    1.623   .     S
Si307  O423    1.628   .     S
Si307  O494    1.629   .     S
Si307  O277    1.623   1_565 S
Si308  O413    1.618   .     S
Si308  O414    1.621   .     S
Si308  O418    1.629   .     S
Si308  O419    1.624   .     S
Si309  O402    1.620   .     S
Si309  O414    1.624   1_554 S
Si309  O415    1.631   .     S
Si309  O279    1.624   1_565 S
Si310  O399    1.622   .     S
Si310  O415    1.631   .     S
Si310  O416    1.621   1_554 S
Si310  O280    1.624   1_565 S
Si311  O416    1.624   .     S
Si311  O417    1.629   .     S
Si311  O420    1.625   .     S
Si311  O428    1.626   .     S
Si312  O417    1.630   .     S
Si312  O418    1.631   .     S
Si312  O426    1.627   .     S
Si312  O278    1.624   1_565 S
Si313  O429    1.624   .     S
Si313  O443    1.628   .     S
Si313  O444    1.625   .     S
Si313  O559    1.621   .     S
Si314  O429    1.623   .     S
Si314  O430    1.626   .     S
Si314  O434    1.621   .     S
Si314  O441    1.623   .     S
Si315  O430    1.623   .     S
Si315  O431    1.621   .     S
Si315  O469    1.622   .     S
Si315  O470    1.632   .     S
Si316  O431    1.622   .     S
Si316  O432    1.620   .     S
Si316  O466    1.621   .     S
Si316  O467    1.623   .     S
Si317  O432    1.627   .     S
Si317  O433    1.623   .     S
Si317  O442    1.626   .     S
Si317  O449    1.624   1_655 S
Si318  O433    1.621   .     S
Si318  O434    1.624   .     S
Si318  O446    1.625   .     S
Si318  O447    1.625   .     S
Si319  O435    1.623   .     S
Si319  O445    1.628   .     S
Si319  O560    1.632   .     S
Si319  O569    1.622   .     S
Si320  O435    1.620   .     S
Si320  O436    1.617   .     S
Si320  O440    1.628   .     S
Si320  O441    1.625   .     S
Si321  O436    1.623   .     S
Si321  O437    1.632   .     S
Si321  O468    1.625   .     S
Si321  O571    1.617   .     S
Si322  O437    1.631   .     S
Si322  O438    1.621   .     S
Si322  O465    1.623   .     S
Si322  O572    1.620   .     S
Si323  O438    1.622   .     S
Si323  O439    1.626   .     S
Si323  O442    1.624   .     S
Si323  O450    1.627   1_655 S
Si324  O439    1.628   .     S
Si324  O440    1.631   .     S
Si324  O448    1.625   .     S
Si324  O570    1.618   .     S
Si325  O451    1.625   .     S
Si325  O465    1.623   .     S
Si325  O466    1.626   .     S
Si325  O537    1.621   .     S
Si326  O451    1.621   .     S
Si326  O452    1.622   .     S
Si326  O456    1.621   .     S
Si326  O463    1.625   .     S
Si327  O447    1.625   .     S
Si327  O448    1.621   .     S
Si327  O452    1.623   1_556 S
Si327  O453    1.625   .     S
Si328  O444    1.625   .     S
Si328  O445    1.623   .     S
Si328  O453    1.621   .     S
Si328  O454    1.620   1_556 S
Si329  O454    1.625   .     S
Si329  O455    1.622   .     S
Si329  O464    1.630   .     S
Si329  O471    1.624   .     S
Si330  O455    1.623   .     S
Si330  O456    1.623   .     S
Si330  O468    1.622   .     S
Si330  O469    1.627   .     S
Si331  O457    1.626   .     S
Si331  O467    1.627   .     S
Si331  O538    1.631   .     S
Si331  O573    1.617   .     S
Si332  O457    1.619   .     S
Si332  O458    1.617   .     S
Si332  O462    1.633   .     S
Si332  O463    1.619   .     S
Si333  O446    1.621   .     S
Si333  O458    1.622   1_556 S
Si333  O459    1.633   .     S
Si333  O575    1.622   .     S
Si334  O443    1.621   .     S
Si334  O459    1.629   .     S
Si334  O460    1.622   1_556 S
Si334  O576    1.626   .     S
Si335  O460    1.624   .     S
Si335  O461    1.631   .     S
Si335  O464    1.621   .     S
Si335  O472    1.626   .     S
Si336  O461    1.626   .     S
Si336  O462    1.624   .     S
Si336  O470    1.622   .     S
Si336  O574    1.633   .     S
Si337  O427    1.622   .     S
Si337  O473    1.608   .     S
Si337  O487    1.633   .     S
Si337  O488    1.625   .     S
Si338  O473    1.628   .     S
Si338  O474    1.595   .     S
Si338  O478    1.625   .     S
Si338  O485    1.633   .     S
Si339  O475    1.598   .     S
Si339  O476    1.627   .     S
Si339  O510    1.636   .     S
Si339  O511    1.637   .     S
Si340  O476    1.620   .     S
Si340  O477    1.625   .     S
Si340  O486    1.627   .     S
Si340  O493    1.628   1_655 S
Si341  O477    1.623   .     S
Si341  O478    1.612   .     S
Si341  O490    1.630   .     S
Si341  O491    1.627   .     S
Si342  O428    1.633   .     S
Si342  O479    1.619   .     S
Si342  O489    1.627   .     S
Si342  O281    1.626   1_565 S
Si343  O479    1.623   .     S
Si343  O480    1.620   .     S
Si343  O484    1.629   .     S
Si343  O485    1.616   .     S
Si344  O480    1.624   .     S
Si344  O481    1.632   .     S
Si344  O512    1.616   .     S
Si344  O283    1.626   1_565 S
Si345  O481    1.628   .     S
Si345  O482    1.623   .     S
Si345  O509    1.622   .     S
Si345  O284    1.625   1_565 S
Si346  O482    1.624   .     S
Si346  O483    1.629   .     S
Si346  O486    1.620   .     S
Si346  O494    1.630   1_655 S
Si347  O483    1.630   .     S
Si347  O484    1.627   .     S
Si347  O492    1.626   .     S
Si347  O282    1.623   1_565 S
Si348  O405    1.627   .     S
Si348  O495    1.622   .     S
Si348  O509    1.628   .     S
Si348  O510    1.623   .     S
Si349  O495    1.621   .     S
Si349  O496    1.629   .     S
Si349  O500    1.612   .     S
Si349  O507    1.636   .     S
Si350  O491    1.625   .     S
Si350  O492    1.627   .     S
Si350  O496    1.625   1_556 S
Si350  O497    1.633   .     S
Si351  O488    1.625   .     S
Si351  O489    1.625   .     S
Si351  O497    1.627   .     S
Si351  O498    1.618   1_556 S
Si352  O499    1.632   .     S
Si352  O500    1.634   .     S
Si352  O512    1.634   .     S
Si352  O513    1.598   .     S
Si353  O406    1.632   .     S
Si353  O501    1.626   .     S
Si353  O511    1.620   .     S
Si353  O573    1.623   .     S
Si354  O501    1.614   .     S
Si354  O502    1.623   .     S
Si354  O506    1.643   .     S
Si354  O507    1.616   .     S
Si355  O490    1.616   .     S
Si355  O502    1.628   1_556 S
Si355  O503    1.636   .     S
Si355  O575    1.625   .     S
Si356  O487    1.619   .     S
Si356  O503    1.630   .     S
Si356  O504    1.623   1_556 S
Si356  O576    1.627   .     S
Si357  O505    1.616   .     S
Si357  O506    1.605   .     S
Si357  O514    1.695   .     S
Si357  O574    1.611   .     S
Si358  O471    1.623   .     S
Si358  O517    1.621   .     S
Si358  O531    1.624   .     S
Si358  O532    1.628   .     S
Si359  O517    1.620   .     S
Si359  O518    1.625   .     S
Si359  O522    1.620   .     S
Si359  O529    1.626   .     S
Si360  O518    1.625   .     S
Si360  O519    1.626   .     S
Si360  O557    1.626   .     S
Si360  O558    1.625   .     S
Si361  O519    1.623   .     S
Si361  O520    1.620   .     S
Si361  O554    1.624   .     S
Si361  O555    1.624   .     S
Si362  O520    1.627   .     S
Si362  O521    1.623   .     S
Si362  O530    1.627   .     S
Si362  O537    1.623   1_455 S
Si363  O521    1.622   .     S
Si363  O522    1.623   .     S
Si363  O534    1.623   .     S
Si363  O535    1.627   .     S
Si364  O472    1.633   .     S
Si364  O523    1.620   .     S
Si364  O533    1.626   .     S
Si364  O561    1.624   .     S
Si365  O523    1.620   .     S
Si365  O524    1.621   .     S
Si365  O528    1.627   .     S
Si365  O529    1.623   .     S
Si366  O524    1.625   .     S
Si366  O525    1.631   .     S
Si366  O556    1.621   .     S
Si366  O563    1.625   .     S
Si367  O525    1.633   .     S
Si367  O526    1.622   .     S
Si367  O553    1.621   .     S
Si367  O564    1.623   .     S
Si368  O526    1.625   .     S
Si368  O527    1.628   .     S
Si368  O530    1.623   .     S
Si368  O538    1.629   1_455 S
Si369  O527    1.629   .     S
Si369  O528    1.631   .     S
Si369  O536    1.627   .     S
Si369  O562    1.623   .     S
Si370  O449    1.623   .     S
Si370  O539    1.623   .     S
Si370  O553    1.626   .     S
Si370  O554    1.627   .     S
Si371  O539    1.622   .     S
Si371  O540    1.623   .     S
Si371  O544    1.620   .     S
Si371  O551    1.623   .     S
Si372  O535    1.625   .     S
Si372  O536    1.626   .     S
Si372  O540    1.621   1_554 S
Si372  O541    1.626   .     S
Si373  O532    1.624   .     S
Si373  O533    1.627   .     S
Si373  O541    1.621   .     S
Si373  O542    1.618   1_554 S
Si374  O542    1.627   .     S
Si374  O543    1.623   .     S
Si374  O552    1.625   .     S
Si374  O559    1.624   .     S
Si375  O543    1.623   .     S
Si375  O544    1.622   .     S
Si375  O556    1.624   .     S
Si375  O557    1.626   .     S
Si376  O450    1.630   .     S
Si376  O545    1.624   .     S
Si376  O555    1.629   .     S
Si376  O565    1.621   .     S
Si377  O545    1.619   .     S
Si377  O546    1.620   .     S
Si377  O550    1.628   .     S
Si377  O551    1.624   .     S
Si378  O534    1.622   .     S
Si378  O546    1.624   1_554 S
Si378  O547    1.632   .     S
Si378  O567    1.623   .     S
Si379  O531    1.622   .     S
Si379  O547    1.631   .     S
Si379  O548    1.620   1_554 S
Si379  O568    1.624   .     S
Si380  O548    1.623   .     S
Si380  O549    1.628   .     S
Si380  O552    1.623   .     S
Si380  O560    1.627   .     S
Si381  O549    1.629   .     S
Si381  O550    1.630   .     S
Si381  O558    1.627   .     S
Si381  O566    1.623   .     S
Si382  O498    1.625   .     S
Si382  O499    1.612   .     S
Si382  O508    1.638   .     S
Si382  O515    1.625   .     S
Si383  O504    1.622   .     S
Si383  O505    1.640   .     S
Si383  O508    1.616   .     S
Si383  O516    1.622   .     S
Al384  O474    1.711   .     S
Al384  O475    1.715   .     S
Al384  O513    1.710   .     S
Al384  O514    1.895   .     S
O405   Si293   1.622   1_655 S
O406   Si299   1.627   1_655 S
O408   Si303   1.622   1_556 S
O410   Si304   1.621   1_556 S
O414   Si309   1.624   1_556 S
O416   Si310   1.621   1_556 S
O449   Si317   1.624   1_455 S
O450   Si323   1.627   1_455 S
O452   Si327   1.623   1_554 S
O454   Si328   1.620   1_554 S
O458   Si333   1.622   1_554 S
O460   Si334   1.622   1_554 S
O493   Si340   1.628   1_455 S
O494   Si346   1.630   1_455 S
O496   Si350   1.625   1_554 S
O498   Si351   1.618   1_554 S
O502   Si355   1.628   1_554 S
O504   Si356   1.623   1_554 S
O514   H577    0.999   .     S
O537   Si362   1.623   1_655 S
O538   Si368   1.629   1_655 S
O540   Si372   1.621   1_556 S
O542   Si373   1.618   1_556 S
O546   Si378   1.624   1_556 S
O548   Si379   1.620   1_556 S
H578   C584    1.089   .     S
H579   C585    1.086   .     S
H580   C582    1.090   .     S
H581   C583    1.087   .     S
C582   C583    1.372   .     D
C582   C584    1.428   .     S
C583   S586    1.725   .     S
C584   C585    1.371   .     D
C585   S586    1.722   .     S
